<?xml version="1.0" encoding="UTF-8"?>

<!-- generated on Tue Feb 25 18:24:36 2020 by Eclipse SUMO netconvert Version 1.2.0
<configuration xmlns:xsi="http://www.w3.org/2001/XMLSchema-instance" xsi:noNamespaceSchemaLocation="http://sumo.dlr.de/xsd/netconvertConfiguration.xsd">

    <input>
        <osm-files value="120_lasalle.osm"/>
    </input>

    <output>
        <output-file value="120_lasalle.net.xml"/>
    </output>

    <projection>
        <proj.utm value="true"/>
    </projection>

</configuration>
-->

<net version="1.1" junctionCornerDetail="5" limitTurnSpeed="5.50" xmlns:xsi="http://www.w3.org/2001/XMLSchema-instance" xsi:noNamespaceSchemaLocation="http://sumo.dlr.de/xsd/net_file.xsd">

    <location netOffset="-586998.35,-4516946.08" convBoundary="0.00,0.00,1143.15,2233.98" origBoundary="-73.968692,40.798909,-73.954966,40.818920" projParameter="+proj=utm +zone=18 +ellps=WGS84 +datum=WGS84 +units=m +no_defs"/>

    <type id="highway.bridleway" priority="1" numLanes="1" speed="2.78" allow="pedestrian" oneway="1" width="2.00"/>
    <type id="highway.bus_guideway" priority="1" numLanes="1" speed="27.78" allow="bus" oneway="1"/>
    <type id="highway.cycleway" priority="1" numLanes="1" speed="8.33" allow="bicycle" oneway="0" width="1.00"/>
    <type id="highway.footway" priority="1" numLanes="1" speed="2.78" allow="pedestrian" oneway="1" width="2.00"/>
    <type id="highway.ford" priority="1" numLanes="1" speed="2.78" allow="army" oneway="0"/>
    <type id="highway.living_street" priority="2" numLanes="1" speed="2.78" disallow="tram rail_urban rail rail_electric ship" oneway="0"/>
    <type id="highway.motorway" priority="14" numLanes="2" speed="39.44" allow="private emergency authority army vip passenger hov taxi bus coach delivery truck trailer motorcycle evehicle custom1 custom2" oneway="1"/>
    <type id="highway.motorway_link" priority="9" numLanes="1" speed="22.22" allow="private emergency authority army vip passenger hov taxi bus coach delivery truck trailer motorcycle evehicle custom1 custom2" oneway="1"/>
    <type id="highway.path" priority="1" numLanes="1" speed="2.78" allow="bicycle pedestrian" oneway="1" width="2.00"/>
    <type id="highway.pedestrian" priority="1" numLanes="1" speed="2.78" allow="pedestrian" oneway="1" width="2.00"/>
    <type id="highway.primary" priority="12" numLanes="2" speed="27.78" disallow="tram rail_urban rail rail_electric ship" oneway="0"/>
    <type id="highway.primary_link" priority="7" numLanes="1" speed="22.22" disallow="tram rail_urban rail rail_electric ship" oneway="0"/>
    <type id="highway.raceway" priority="15" numLanes="2" speed="83.33" allow="vip" oneway="0"/>
    <type id="highway.residential" priority="3" numLanes="1" speed="13.89" disallow="tram rail_urban rail rail_electric ship" oneway="0"/>
    <type id="highway.secondary" priority="11" numLanes="2" speed="27.78" disallow="tram rail_urban rail rail_electric ship" oneway="0"/>
    <type id="highway.secondary_link" priority="6" numLanes="1" speed="22.22" disallow="tram rail_urban rail rail_electric ship" oneway="0"/>
    <type id="highway.service" priority="1" numLanes="1" speed="5.56" allow="delivery bicycle pedestrian" oneway="0"/>
    <type id="highway.stairs" priority="1" numLanes="1" speed="1.39" allow="pedestrian" oneway="1" width="2.00"/>
    <type id="highway.step" priority="1" numLanes="1" speed="1.39" allow="pedestrian" oneway="1" width="2.00"/>
    <type id="highway.steps" priority="1" numLanes="1" speed="1.39" allow="pedestrian" oneway="1" width="2.00"/>
    <type id="highway.tertiary" priority="10" numLanes="1" speed="22.22" disallow="tram rail_urban rail rail_electric ship" oneway="0"/>
    <type id="highway.tertiary_link" priority="5" numLanes="1" speed="22.22" disallow="tram rail_urban rail rail_electric ship" oneway="0"/>
    <type id="highway.track" priority="1" numLanes="1" speed="5.56" disallow="tram rail_urban rail rail_electric ship" oneway="0"/>
    <type id="highway.trunk" priority="13" numLanes="2" speed="27.78" disallow="tram rail_urban rail rail_electric bicycle pedestrian ship" oneway="0"/>
    <type id="highway.trunk_link" priority="8" numLanes="1" speed="22.22" disallow="tram rail_urban rail rail_electric bicycle pedestrian ship" oneway="0"/>
    <type id="highway.unclassified" priority="4" numLanes="1" speed="13.89" disallow="tram rail_urban rail rail_electric ship" oneway="0"/>
    <type id="highway.unsurfaced" priority="1" numLanes="1" speed="8.33" disallow="tram rail_urban rail rail_electric ship" oneway="0"/>
    <type id="railway.light_rail" priority="19" numLanes="1" speed="27.78" allow="rail_urban" oneway="1"/>
    <type id="railway.preserved" priority="16" numLanes="1" speed="27.78" allow="rail" oneway="1"/>
    <type id="railway.rail" priority="20" numLanes="1" speed="83.33" allow="rail rail_electric" oneway="1"/>
    <type id="railway.subway" priority="18" numLanes="1" speed="27.78" allow="rail_urban" oneway="1"/>
    <type id="railway.tram" priority="17" numLanes="1" speed="13.89" allow="tram" oneway="1"/>

    <edge id=":1332860726_0" function="internal">
        <lane id=":1332860726_0_0" index="0" disallow="tram rail_urban rail rail_electric ship" speed="6.45" length="9.03" shape="468.01,1526.15 466.00,1527.61 464.95,1529.35 464.87,1531.38 465.77,1533.70"/>
    </edge>
    <edge id=":1332860726_1" function="internal">
        <lane id=":1332860726_1_0" index="0" disallow="tram rail_urban rail rail_electric ship" speed="3.65" length="4.67" shape="468.01,1526.15 466.58,1526.00 465.85,1525.48 465.83,1524.58 466.53,1523.32"/>
    </edge>
    <edge id=":1332860726_2" function="internal">
        <lane id=":1332860726_2_0" index="0" disallow="tram rail_urban rail rail_electric ship" speed="6.60" length="9.16" shape="458.77,1521.10 460.26,1523.07 462.05,1524.09 464.14,1524.18 466.53,1523.32"/>
    </edge>
    <edge id=":1332860726_3" function="internal">
        <lane id=":1332860726_3_0" index="0" disallow="tram rail_urban rail rail_electric ship" speed="27.78" length="14.42" shape="458.77,1521.10 465.77,1533.70"/>
        <lane id=":1332860726_3_1" index="1" disallow="tram rail_urban rail rail_electric ship" speed="27.78" length="14.42" shape="455.96,1522.65 462.97,1535.26"/>
    </edge>
    <edge id=":1332860731_0" function="internal">
        <lane id=":1332860731_0_0" index="0" disallow="tram rail_urban rail rail_electric ship" speed="7.25" length="11.33" shape="540.56,1495.74 538.77,1493.39 536.56,1492.19 533.94,1492.16 530.90,1493.27"/>
    </edge>
    <edge id=":1332860731_1" function="internal">
        <lane id=":1332860731_1_0" index="0" disallow="tram rail_urban rail rail_electric ship" speed="13.89" length="15.49" shape="540.56,1495.74 533.20,1482.12"/>
    </edge>
    <edge id=":1332860731_2" function="internal">
        <lane id=":1332860731_2_0" index="0" disallow="tram rail_urban rail rail_electric ship" speed="8.22" length="6.56" shape="540.56,1495.74 539.00,1491.69 538.99,1489.47"/>
    </edge>
    <edge id=":1332860731_3" function="internal">
        <lane id=":1332860731_3_0" index="0" disallow="tram rail_urban rail rail_electric ship" speed="3.65" length="2.34" shape="540.56,1495.74 540.70,1494.31 541.21,1493.58"/>
    </edge>
    <edge id=":1332860731_16" function="internal">
        <lane id=":1332860731_16_0" index="0" disallow="tram rail_urban rail rail_electric ship" speed="8.22" length="8.49" shape="538.99,1489.47 538.99,1488.20 540.54,1485.28 543.64,1482.91"/>
    </edge>
    <edge id=":1332860731_17" function="internal">
        <lane id=":1332860731_17_0" index="0" disallow="tram rail_urban rail rail_electric ship" speed="3.65" length="2.34" shape="541.21,1493.58 542.10,1493.55 543.38,1494.22"/>
    </edge>
    <edge id=":1332860731_4" function="internal">
        <lane id=":1332860731_4_0" index="0" disallow="tram rail_urban rail rail_electric ship" speed="6.77" length="9.88" shape="545.16,1485.73 543.20,1487.25 542.24,1489.18 542.31,1491.50 543.38,1494.22"/>
    </edge>
    <edge id=":1332860731_5" function="internal">
        <lane id=":1332860731_5_0" index="0" disallow="tram rail_urban rail rail_electric ship" speed="13.89" length="16.13" shape="545.16,1485.73 530.90,1493.27"/>
    </edge>
    <edge id=":1332860731_6" function="internal">
        <lane id=":1332860731_6_0" index="0" disallow="tram rail_urban rail rail_electric ship" speed="8.02" length="5.99" shape="545.16,1485.73 541.50,1487.07 539.40,1486.96"/>
    </edge>
    <edge id=":1332860731_7" function="internal">
        <lane id=":1332860731_7_0" index="0" disallow="tram rail_urban rail rail_electric ship" speed="3.65" length="2.34" shape="545.16,1485.73 543.72,1485.59 542.99,1485.08"/>
    </edge>
    <edge id=":1332860731_18" function="internal">
        <lane id=":1332860731_18_0" index="0" disallow="tram rail_urban rail rail_electric ship" speed="8.02" length="8.24" shape="539.40,1486.96 538.29,1486.91 535.52,1485.26 533.20,1482.12"/>
    </edge>
    <edge id=":1332860731_19" function="internal">
        <lane id=":1332860731_19_0" index="0" disallow="tram rail_urban rail rail_electric ship" speed="3.65" length="2.34" shape="542.99,1485.08 542.96,1484.18 543.64,1482.91"/>
    </edge>
    <edge id=":1332860731_8" function="internal">
        <lane id=":1332860731_8_0" index="0" disallow="tram rail_urban rail rail_electric ship" speed="6.53" length="9.08" shape="536.02,1480.60 537.50,1482.60 539.27,1483.66 541.31,1483.76 543.64,1482.91"/>
    </edge>
    <edge id=":1332860731_9" function="internal">
        <lane id=":1332860731_9_0" index="0" disallow="tram rail_urban rail rail_electric ship" speed="13.89" length="15.49" shape="536.02,1480.60 543.38,1494.22"/>
    </edge>
    <edge id=":1332860731_10" function="internal">
        <lane id=":1332860731_10_0" index="0" disallow="tram rail_urban rail rail_electric ship" speed="8.32" length="5.54" shape="536.02,1480.60 537.28,1484.31 537.07,1485.91"/>
    </edge>
    <edge id=":1332860731_11" function="internal">
        <lane id=":1332860731_11_0" index="0" disallow="tram rail_urban rail rail_electric ship" speed="3.65" length="2.34" shape="536.02,1480.60 535.88,1482.03 535.37,1482.76"/>
    </edge>
    <edge id=":1332860731_20" function="internal">
        <lane id=":1332860731_20_0" index="0" disallow="tram rail_urban rail rail_electric ship" speed="8.32" length="10.07" shape="537.07,1485.91 536.84,1487.67 534.72,1490.65 530.90,1493.27"/>
    </edge>
    <edge id=":1332860731_21" function="internal">
        <lane id=":1332860731_21_0" index="0" disallow="tram rail_urban rail rail_electric ship" speed="3.65" length="2.34" shape="535.37,1482.76 534.48,1482.79 533.20,1482.12"/>
    </edge>
    <edge id=":1332860731_12" function="internal">
        <lane id=":1332860731_12_0" index="0" disallow="tram rail_urban rail rail_electric ship" speed="6.90" length="10.40" shape="529.42,1490.44 532.07,1488.65 533.59,1486.67 533.97,1484.49 533.20,1482.12"/>
    </edge>
    <edge id=":1332860731_13" function="internal">
        <lane id=":1332860731_13_0" index="0" disallow="tram rail_urban rail rail_electric ship" speed="13.89" length="16.10" shape="529.42,1490.44 543.64,1482.91"/>
    </edge>
    <edge id=":1332860731_14" function="internal">
        <lane id=":1332860731_14_0" index="0" disallow="tram rail_urban rail rail_electric ship" speed="8.61" length="6.60" shape="529.42,1490.44 533.77,1488.85 535.73,1488.91"/>
    </edge>
    <edge id=":1332860731_15" function="internal">
        <lane id=":1332860731_15_0" index="0" disallow="tram rail_urban rail rail_electric ship" speed="3.65" length="2.34" shape="529.42,1490.44 530.85,1490.59 531.57,1491.12"/>
    </edge>
    <edge id=":1332860731_22" function="internal">
        <lane id=":1332860731_22_0" index="0" disallow="tram rail_urban rail rail_electric ship" speed="8.61" length="9.85" shape="535.73,1488.91 537.55,1488.96 540.75,1490.75 543.38,1494.22"/>
    </edge>
    <edge id=":1332860731_23" function="internal">
        <lane id=":1332860731_23_0" index="0" disallow="tram rail_urban rail rail_electric ship" speed="3.65" length="2.34" shape="531.57,1491.12 531.59,1492.01 530.90,1493.27"/>
    </edge>
    <edge id=":1504153604_0" function="internal">
        <lane id=":1504153604_0_0" index="0" disallow="tram rail_urban rail rail_electric ship" speed="6.51" length="9.04" shape="558.33,1291.86 556.34,1293.34 555.29,1295.10 555.20,1297.14 556.06,1299.46"/>
    </edge>
    <edge id=":1504153604_1" function="internal">
        <lane id=":1504153604_1_0" index="0" disallow="tram rail_urban rail rail_electric ship" speed="13.89" length="14.56" shape="558.33,1291.86 545.41,1298.59"/>
    </edge>
    <edge id=":1504153604_2" function="internal">
        <lane id=":1504153604_2_0" index="0" disallow="tram rail_urban rail rail_electric ship" speed="3.65" length="2.34" shape="558.33,1291.86 556.89,1291.73 556.16,1291.22"/>
    </edge>
    <edge id=":1504153604_10" function="internal">
        <lane id=":1504153604_10_0" index="0" disallow="tram rail_urban rail rail_electric ship" speed="3.65" length="2.34" shape="556.16,1291.22 556.13,1290.33 556.80,1289.05"/>
    </edge>
    <edge id=":1504153604_3" function="internal">
        <lane id=":1504153604_3_0" index="0" disallow="tram rail_urban rail rail_electric ship" speed="6.53" length="9.11" shape="549.17,1286.71 550.66,1288.73 552.43,1289.80 554.48,1289.91 556.80,1289.05"/>
    </edge>
    <edge id=":1504153604_4" function="internal">
        <lane id=":1504153604_4_0" index="0" disallow="tram rail_urban rail rail_electric ship" speed="19.48" length="14.50" shape="549.17,1286.71 556.06,1299.46"/>
        <lane id=":1504153604_4_1" index="1" disallow="tram rail_urban rail rail_electric ship" speed="19.48" length="14.50" shape="546.35,1288.23 553.25,1300.99"/>
    </edge>
    <edge id=":1504153604_6" function="internal">
        <lane id=":1504153604_6_0" index="0" disallow="tram rail_urban rail rail_electric ship" speed="7.26" length="11.78" shape="546.35,1288.23 547.87,1291.80 548.22,1294.71 547.40,1296.98 545.41,1298.59"/>
    </edge>
    <edge id=":1504153604_7" function="internal">
        <lane id=":1504153604_7_0" index="0" disallow="tram rail_urban rail rail_electric ship" speed="13.89" length="14.45" shape="543.98,1295.72 556.80,1289.05"/>
    </edge>
    <edge id=":1504153604_8" function="internal">
        <lane id=":1504153604_8_0" index="0" disallow="tram rail_urban rail rail_electric ship" speed="7.47" length="4.02" shape="543.98,1295.72 546.45,1295.11 547.86,1295.51"/>
    </edge>
    <edge id=":1504153604_9" function="internal">
        <lane id=":1504153604_9_0" index="0" disallow="tram rail_urban rail rail_electric ship" speed="3.65" length="2.34" shape="543.98,1295.72 545.41,1295.90 546.12,1296.44"/>
    </edge>
    <edge id=":1504153604_11" function="internal">
        <lane id=":1504153604_11_0" index="0" disallow="tram rail_urban rail rail_electric ship" speed="7.47" length="7.89" shape="547.86,1295.51 548.82,1295.78 551.09,1297.74 553.25,1300.99"/>
    </edge>
    <edge id=":1504153604_12" function="internal">
        <lane id=":1504153604_12_0" index="0" disallow="tram rail_urban rail rail_electric ship" speed="3.65" length="2.34" shape="546.12,1296.44 546.12,1297.34 545.41,1298.59"/>
    </edge>
    <edge id=":1504153626_0" function="internal">
        <lane id=":1504153626_0_0" index="0" disallow="tram rail_urban rail rail_electric ship" speed="6.53" length="9.12" shape="784.87,1175.76 783.37,1173.74 781.60,1172.69 779.55,1172.59 777.21,1173.46"/>
    </edge>
    <edge id=":1504153626_1" function="internal">
        <lane id=":1504153626_1_0" index="0" disallow="tram rail_urban rail rail_electric ship" speed="27.78" length="14.49" shape="784.87,1175.76 777.90,1163.06"/>
        <lane id=":1504153626_1_1" index="1" disallow="tram rail_urban rail rail_electric ship" speed="27.78" length="14.49" shape="787.67,1174.22 780.70,1161.51"/>
    </edge>
    <edge id=":1504153626_3" function="internal">
        <lane id=":1504153626_3_0" index="0" disallow="tram rail_urban rail rail_electric ship" speed="8.67" length="5.26" shape="787.67,1174.22 786.48,1170.45 786.73,1169.17"/>
    </edge>
    <edge id=":1504153626_4" function="internal">
        <lane id=":1504153626_4_0" index="0" disallow="tram rail_urban rail rail_electric ship" speed="3.65" length="2.34" shape="787.67,1174.22 787.80,1172.78 788.31,1172.05"/>
    </edge>
    <edge id=":1504153626_18" function="internal">
        <lane id=":1504153626_18_0" index="0" disallow="tram rail_urban rail rail_electric ship" speed="8.67" length="11.65" shape="786.73,1169.17 787.15,1166.94 789.67,1163.71 794.04,1160.74"/>
    </edge>
    <edge id=":1504153626_19" function="internal">
        <lane id=":1504153626_19_0" index="0" disallow="tram rail_urban rail rail_electric ship" speed="3.65" length="2.34" shape="788.31,1172.05 789.20,1172.01 790.48,1172.68"/>
    </edge>
    <edge id=":1504153626_5" function="internal">
        <lane id=":1504153626_5_0" index="0" disallow="tram rail_urban rail rail_electric ship" speed="6.50" length="9.03" shape="795.54,1163.56 793.55,1165.03 792.51,1166.78 792.42,1168.82 793.28,1171.14"/>
    </edge>
    <edge id=":1504153626_6" function="internal">
        <lane id=":1504153626_6_0" index="0" disallow="tram rail_urban rail rail_electric ship" speed="13.89" length="20.84" shape="795.54,1163.56 777.21,1173.46"/>
    </edge>
    <edge id=":1504153626_7" function="internal">
        <lane id=":1504153626_7_0" index="0" disallow="tram rail_urban rail rail_electric ship" speed="8.73" length="7.84" shape="795.54,1163.56 790.64,1165.56 788.11,1165.76"/>
    </edge>
    <edge id=":1504153626_8" function="internal">
        <lane id=":1504153626_8_0" index="0" disallow="tram rail_urban rail rail_electric ship" speed="3.65" length="2.34" shape="795.54,1163.56 794.11,1163.43 793.38,1162.91"/>
    </edge>
    <edge id=":1504153626_20" function="internal">
        <lane id=":1504153626_20_0" index="0" disallow="tram rail_urban rail rail_electric ship" speed="8.73" length="9.09" shape="788.11,1165.76 786.54,1165.89 783.22,1164.54 780.70,1161.51"/>
    </edge>
    <edge id=":1504153626_21" function="internal">
        <lane id=":1504153626_21_0" index="0" disallow="tram rail_urban rail rail_electric ship" speed="3.65" length="2.34" shape="793.38,1162.91 793.35,1162.01 794.04,1160.74"/>
    </edge>
    <edge id=":1504153626_9" function="internal">
        <lane id=":1504153626_9_0" index="0" disallow="tram rail_urban rail rail_electric ship" speed="6.58" length="9.18" shape="786.31,1158.43 787.82,1160.44 789.61,1161.50 791.68,1161.60 794.04,1160.74"/>
    </edge>
    <edge id=":1504153626_10" function="internal">
        <lane id=":1504153626_10_0" index="0" disallow="tram rail_urban rail rail_electric ship" speed="27.78" length="14.50" shape="786.31,1158.43 793.28,1171.14"/>
        <lane id=":1504153626_10_1" index="1" disallow="tram rail_urban rail rail_electric ship" speed="27.78" length="14.50" shape="783.50,1159.97 790.48,1172.68"/>
    </edge>
    <edge id=":1504153626_12" function="internal">
        <lane id=":1504153626_12_0" index="0" disallow="tram rail_urban rail rail_electric ship" speed="8.66" length="5.29" shape="783.50,1159.97 784.71,1163.72 784.46,1165.04"/>
    </edge>
    <edge id=":1504153626_13" function="internal">
        <lane id=":1504153626_13_0" index="0" disallow="tram rail_urban rail rail_electric ship" speed="3.65" length="2.34" shape="783.50,1159.97 783.38,1161.41 782.87,1162.14"/>
    </edge>
    <edge id=":1504153626_22" function="internal">
        <lane id=":1504153626_22_0" index="0" disallow="tram rail_urban rail rail_electric ship" speed="8.66" length="11.59" shape="784.46,1165.04 784.06,1167.21 781.56,1170.46 777.21,1173.46"/>
    </edge>
    <edge id=":1504153626_23" function="internal">
        <lane id=":1504153626_23_0" index="0" disallow="tram rail_urban rail rail_electric ship" speed="3.65" length="2.34" shape="782.87,1162.14 781.98,1162.18 780.70,1161.51"/>
    </edge>
    <edge id=":1504153626_14" function="internal">
        <lane id=":1504153626_14_0" index="0" disallow="tram rail_urban rail rail_electric ship" speed="6.50" length="9.03" shape="775.68,1170.65 777.66,1169.17 778.69,1167.41 778.77,1165.37 777.90,1163.06"/>
    </edge>
    <edge id=":1504153626_15" function="internal">
        <lane id=":1504153626_15_0" index="0" disallow="tram rail_urban rail rail_electric ship" speed="13.89" length="20.86" shape="775.68,1170.65 794.04,1160.74"/>
    </edge>
    <edge id=":1504153626_16" function="internal">
        <lane id=":1504153626_16_0" index="0" disallow="tram rail_urban rail rail_electric ship" speed="8.68" length="7.96" shape="775.68,1170.65 780.57,1168.62 783.23,1168.40"/>
    </edge>
    <edge id=":1504153626_17" function="internal">
        <lane id=":1504153626_17_0" index="0" disallow="tram rail_urban rail rail_electric ship" speed="3.65" length="2.34" shape="775.68,1170.65 777.12,1170.78 777.85,1171.29"/>
    </edge>
    <edge id=":1504153626_24" function="internal">
        <lane id=":1504153626_24_0" index="0" disallow="tram rail_urban rail rail_electric ship" speed="8.68" length="8.97" shape="783.23,1168.40 784.67,1168.28 787.97,1169.63 790.48,1172.68"/>
    </edge>
    <edge id=":1504153626_25" function="internal">
        <lane id=":1504153626_25_0" index="0" disallow="tram rail_urban rail rail_electric ship" speed="3.65" length="2.34" shape="777.85,1171.29 777.88,1172.19 777.21,1173.46"/>
    </edge>
    <edge id=":1506445821_0" function="internal">
        <lane id=":1506445821_0_0" index="0" disallow="tram rail_urban rail rail_electric ship" speed="27.78" length="0.29" shape="776.33,809.79 776.19,809.54"/>
    </edge>
    <edge id=":1506445821_1" function="internal">
        <lane id=":1506445821_1_0" index="0" disallow="tram rail_urban rail rail_electric ship" speed="27.78" length="0.31" shape="779.00,808.01 779.15,808.28"/>
    </edge>
    <edge id=":1506591534_0" function="internal">
        <lane id=":1506591534_0_0" index="0" disallow="tram rail_urban rail rail_electric ship" speed="6.41" length="8.70" shape="614.37,1454.42 612.99,1452.60 611.29,1451.68 609.28,1451.65 606.97,1452.53"/>
    </edge>
    <edge id=":1506591534_1" function="internal">
        <lane id=":1506591534_1_0" index="0" disallow="tram rail_urban rail rail_electric ship" speed="27.78" length="14.00" shape="614.37,1454.42 607.71,1442.11"/>
        <lane id=":1506591534_1_1" index="1" disallow="tram rail_urban rail rail_electric ship" speed="27.78" length="14.00" shape="617.18,1452.89 610.52,1440.58"/>
    </edge>
    <edge id=":1506591534_3" function="internal">
        <lane id=":1506591534_3_0" index="0" disallow="tram rail_urban rail rail_electric ship" speed="7.27" length="11.41" shape="617.18,1452.89 615.75,1449.50 615.42,1446.68 616.21,1444.44 618.11,1442.79"/>
    </edge>
    <edge id=":1506591534_4" function="internal">
        <lane id=":1506591534_4_0" index="0" disallow="tram rail_urban rail rail_electric ship" speed="13.89" length="14.48" shape="619.66,1445.58 606.97,1452.53"/>
    </edge>
    <edge id=":1506591534_5" function="internal">
        <lane id=":1506591534_5_0" index="0" disallow="tram rail_urban rail rail_electric ship" speed="7.30" length="4.10" shape="619.66,1445.58 617.24,1446.30 615.72,1445.92"/>
    </edge>
    <edge id=":1506591534_6" function="internal">
        <lane id=":1506591534_6_0" index="0" disallow="tram rail_urban rail rail_electric ship" speed="3.65" length="2.34" shape="619.66,1445.58 618.23,1445.47 617.49,1444.96"/>
    </edge>
    <edge id=":1506591534_10" function="internal">
        <lane id=":1506591534_10_0" index="0" disallow="tram rail_urban rail rail_electric ship" speed="7.30" length="7.65" shape="615.72,1445.92 614.91,1445.71 612.67,1443.80 610.52,1440.58"/>
    </edge>
    <edge id=":1506591534_11" function="internal">
        <lane id=":1506591534_11_0" index="0" disallow="tram rail_urban rail rail_electric ship" speed="3.65" length="2.34" shape="617.49,1444.96 617.45,1444.07 618.11,1442.79"/>
    </edge>
    <edge id=":1506591534_7" function="internal">
        <lane id=":1506591534_7_0" index="0" disallow="tram rail_urban rail rail_electric ship" speed="6.51" length="9.06" shape="605.45,1449.71 607.44,1448.24 608.49,1446.49 608.57,1444.44 607.71,1442.11"/>
    </edge>
    <edge id=":1506591534_8" function="internal">
        <lane id=":1506591534_8_0" index="0" disallow="tram rail_urban rail rail_electric ship" speed="13.89" length="14.43" shape="605.45,1449.71 618.11,1442.79"/>
    </edge>
    <edge id=":1506591534_9" function="internal">
        <lane id=":1506591534_9_0" index="0" disallow="tram rail_urban rail rail_electric ship" speed="3.65" length="2.34" shape="605.45,1449.71 606.89,1449.85 607.62,1450.37"/>
    </edge>
    <edge id=":1506591534_12" function="internal">
        <lane id=":1506591534_12_0" index="0" disallow="tram rail_urban rail rail_electric ship" speed="3.65" length="2.34" shape="607.62,1450.37 607.64,1451.26 606.97,1452.53"/>
    </edge>
    <edge id=":1506591536_0" function="internal">
        <lane id=":1506591536_0_0" index="0" disallow="tram rail_urban rail rail_electric ship" speed="6.55" length="9.14" shape="535.93,1309.76 534.43,1307.72 532.65,1306.65 530.60,1306.54 528.27,1307.38"/>
    </edge>
    <edge id=":1506591536_1" function="internal">
        <lane id=":1506591536_1_0" index="0" disallow="tram rail_urban rail rail_electric ship" speed="19.48" length="14.50" shape="535.93,1309.76 529.04,1296.98"/>
        <lane id=":1506591536_1_1" index="1" disallow="tram rail_urban rail rail_electric ship" speed="19.48" length="14.50" shape="538.74,1308.23 531.86,1295.47"/>
    </edge>
    <edge id=":1506591536_3" function="internal">
        <lane id=":1506591536_3_0" index="0" disallow="tram rail_urban rail rail_electric ship" speed="7.26" length="11.78" shape="538.74,1308.23 537.22,1304.66 536.86,1301.75 537.68,1299.49 539.67,1297.87"/>
    </edge>
    <edge id=":1506591536_4" function="internal">
        <lane id=":1506591536_4_0" index="0" disallow="tram rail_urban rail rail_electric ship" speed="13.89" length="14.45" shape="541.10,1300.74 528.27,1307.38"/>
    </edge>
    <edge id=":1506591536_5" function="internal">
        <lane id=":1506591536_5_0" index="0" disallow="tram rail_urban rail rail_electric ship" speed="7.45" length="4.03" shape="541.10,1300.74 538.63,1301.36 537.20,1300.95"/>
    </edge>
    <edge id=":1506591536_6" function="internal">
        <lane id=":1506591536_6_0" index="0" disallow="tram rail_urban rail rail_electric ship" speed="3.65" length="2.34" shape="541.10,1300.74 539.67,1300.56 538.96,1300.02"/>
    </edge>
    <edge id=":1506591536_10" function="internal">
        <lane id=":1506591536_10_0" index="0" disallow="tram rail_urban rail rail_electric ship" speed="7.45" length="7.86" shape="537.20,1300.95 536.26,1300.69 534.01,1298.72 531.86,1295.47"/>
    </edge>
    <edge id=":1506591536_11" function="internal">
        <lane id=":1506591536_11_0" index="0" disallow="tram rail_urban rail rail_electric ship" speed="3.65" length="2.34" shape="538.96,1300.02 538.96,1299.13 539.67,1297.87"/>
    </edge>
    <edge id=":1506591536_7" function="internal">
        <lane id=":1506591536_7_0" index="0" disallow="tram rail_urban rail rail_electric ship" speed="6.51" length="9.03" shape="526.75,1304.56 528.74,1303.10 529.79,1301.34 529.89,1299.31 529.04,1296.98"/>
    </edge>
    <edge id=":1506591536_8" function="internal">
        <lane id=":1506591536_8_0" index="0" disallow="tram rail_urban rail rail_electric ship" speed="13.89" length="14.55" shape="526.75,1304.56 539.67,1297.87"/>
    </edge>
    <edge id=":1506591536_9" function="internal">
        <lane id=":1506591536_9_0" index="0" disallow="tram rail_urban rail rail_electric ship" speed="3.65" length="2.34" shape="526.75,1304.56 528.19,1304.70 528.92,1305.21"/>
    </edge>
    <edge id=":1506591536_12" function="internal">
        <lane id=":1506591536_12_0" index="0" disallow="tram rail_urban rail rail_electric ship" speed="3.65" length="2.34" shape="528.92,1305.21 528.95,1306.11 528.27,1307.38"/>
    </edge>
    <edge id=":1506599377_0" function="internal">
        <lane id=":1506599377_0_0" index="0" disallow="tram rail_urban rail rail_electric ship" speed="6.37" length="8.64" shape="675.53,1504.06 673.72,1505.42 672.81,1507.10 672.79,1509.09 673.68,1511.40"/>
    </edge>
    <edge id=":1506599377_1" function="internal">
        <lane id=":1506599377_1_0" index="0" disallow="tram rail_urban rail rail_electric ship" speed="27.78" length="11.18" shape="668.34,1501.57 673.68,1511.40"/>
        <lane id=":1506599377_1_1" index="1" disallow="tram rail_urban rail rail_electric ship" speed="27.78" length="11.18" shape="665.53,1503.11 670.86,1512.92"/>
    </edge>
    <edge id=":1506599378_0" function="internal">
        <lane id=":1506599378_0_0" index="0" disallow="tram rail_urban rail rail_electric ship" speed="6.19" length="8.01" shape="638.02,1435.87 636.32,1437.14 635.44,1438.70 635.39,1440.54 636.16,1442.66"/>
    </edge>
    <edge id=":1506599378_1" function="internal">
        <lane id=":1506599378_1_0" index="0" disallow="tram rail_urban rail rail_electric ship" speed="13.89" length="13.69" shape="638.02,1435.87 625.89,1442.23"/>
    </edge>
    <edge id=":1506599378_2" function="internal">
        <lane id=":1506599378_2_0" index="0" disallow="tram rail_urban rail rail_electric ship" speed="3.65" length="2.34" shape="638.02,1435.87 636.58,1435.73 635.85,1435.21"/>
    </edge>
    <edge id=":1506599378_10" function="internal">
        <lane id=":1506599378_10_0" index="0" disallow="tram rail_urban rail rail_electric ship" speed="3.65" length="2.34" shape="635.85,1435.21 635.83,1434.32 636.51,1433.04"/>
    </edge>
    <edge id=":1506599378_3" function="internal">