<?xml version="1.0" encoding="UTF-8"?>

<!-- generated on Mon Dec  9 13:40:34 2019 by Eclipse SUMO duarouter Version 1.1.0
<configuration xmlns:xsi="http://www.w3.org/2001/XMLSchema-instance" xsi:noNamespaceSchemaLocation="http://sumo.dlr.de/xsd/duarouterConfiguration.xsd">

    <input>
        <net-file value="osm.net.xml"/>
        <route-files value="osm.passenger.trips.xml"/>
    </input>

    <output>
        <output-file value="result.rou.xml"/>
        <vtype-output value="vehicles.xml"/>
        <alternatives-output value="result.rou.alt.xml"/>
    </output>

    <defaults>
        <departpos value="random"/>
        <departspeed value="random"/>
    </defaults>

</configuration>
-->

<routes xmlns:xsi="http://www.w3.org/2001/XMLSchema-instance" xsi:noNamespaceSchemaLocation="http://sumo.dlr.de/xsd/routes_file.xsd">
    <vehicle id="veh0" type="passenger" depart="0.00" departLane="best" departPos="random" departSpeed="max">
        <route edges="46568293#0 46568293#0-AddedOffRampEdge 50654436 657059020#1 657059020#2 -5671283 5669820 195743149#4 195743149#5 5670413 -195743135#3"/>
    </vehicle>
    <vehicle id="veh1" type="passenger" depart="2.96" departLane="best" departPos="random" departSpeed="random">
        <route edges="165886328 46583480#1 560344318#0 497250991#1 -195743188#1 -195743188#0 -5671617 -349272149 497252083#0 497252083#1 497252083#2 -497252083#2"/>
    </vehicle>
    <vehicle id="veh2" type="passenger" depart="5.93" departLane="best" departPos="random" departSpeed="max">
        <route edges="5671914 497252083#0 -5673220#0 -195743135#0 -195743134#2 -195743134#1 -195743134#0 -309956784#6 -309956784#5"/>
    </vehicle>
    <vehicle id="veh3" type="passenger" depart="8.89" departLane="best" departPos="random" departSpeed="max">
        <route edges="196117056#0 196117056#1 560344318#0 497250991#1 -195743188#1 -195743188#0"/>
    </vehicle>
    <vehicle id="veh4" type="passenger" depart="11.85" departLane="best" departPos="random" departSpeed="random">
        <route edges="-195743135#4 195743135#4 5673326 195743150#0 5670226#4 -46568312"/>
    </vehicle>
    <vehicle id="veh5" type="passenger" depart="14.81" departLane="best" departPos="random" departSpeed="max">
        <route edges="46568293#0 46568293#0-AddedOffRampEdge 50654436 657059020#1 657059020#2 657059020#4 657059020#5 46111627#0 351245252 46111629#1 5670663 733332974 -68668548 -420590070#1 420590070#1"/>
    </vehicle>
    <vehicle id="veh6" type="passenger" depart="17.78" departLane="best" departPos="random" departSpeed="random">
        <route edges="-5668986#6 196116983#5 196116983#6 196116983#8 196116983#9 195743149#0 195743149#1 195743149#2 195743149#3 195743149#4 195743149#5 505579776 455688156"/>
    </vehicle>
    <vehicle id="veh7" type="passenger" depart="20.74" departLane="best" departPos="random" departSpeed="max">
        <route edges="5670742#0 196117056#1 560344318#0 497250991#1 420881460 195743203#2 195743203#3 421505920 195743134#1 -195743134#1"/>
    </vehicle>
    <vehicle id="veh8" type="passenger" depart="23.70" departLane="best" departPos="random" departSpeed="max">
        <route edges="5670742#0 196117056#1 560344318#0 497250991#1 -195743188#1 -195743188#0 -5671617 -349272149 497252083#0"/>
    </vehicle>
    <vehicle id="veh9" type="passenger" depart="26.67" departLane="best" departPos="random" departSpeed="random">
        <route edges="195743149#5 505579776 195743150#0 195743150#1 195743150#2 195743150#3 195743150#4 195743150#5 -420590068 -420881463 -420590069#0 -420881462 -195743203#2 -195743203#1 -420881458"/>
    </vehicle>
    <vehicle id="veh10" type="passenger" depart="29.63" departLane="best" departPos="random" departSpeed="random">
        <route edges="733332974 -68668548 -420590070#1 -420590070#0 -420590068 -420881463 -420590069#0 421505920 195743134#1 195743134#2 195743135#0 195743135#1 195743135#2"/>
    </vehicle>
    <vehicle id="veh11" type="passenger" depart="32.59" departLane="best" departPos="random" departSpeed="random">
        <route edges="-420590069#0 -309956784#6 -309956784#5 -309956784#4 -309956784#3 -309956784#1 -309956784#0 -455689184 -196116971#1 -196116971#0 -327917960"/>
    </vehicle>
    <vehicle id="veh12" type="passenger" depart="35.55" departLane="best" departPos="random" departSpeed="random">
        <route edges="5670961#1 5670961#2-AddedOnRampEdge 5670961#2 46111614#0"/>
    </vehicle>
    <vehicle id="veh13" type="passenger" depart="38.52" departLane="best" departPos="random" departSpeed="max">
        <route edges="5670742#0 196117056#1 560344318#0 497250991#1 420881460 195743203#2 195743203#3 420590069#0 420590069#1 420590068 195743149#0 195743149#1 195743149#2 195743149#3 195743149#4 195743149#5 505579776 525667719"/>
    </vehicle>
    <vehicle id="veh15" type="passenger" depart="44.44" departLane="best" departPos="random" departSpeed="random">
        <route edges="196116971#0 196116971#1 455689184 309956784#0 309956784#1 309956784#3 309956784#4 309956784#5 309956784#6 -420881462 -195743203#2 -195743203#1 420881460"/>
    </vehicle>
    <vehicle id="veh16" type="passenger" depart="47.41" departLane="best" departPos="random" departSpeed="random">
        <route edges="5670951#1 5670951#2-AddedOnRampEdge 5670951#2 5670964#1 5670964#2 5670961#2-AddedOnRampEdge 5670961#2 46111614#0 -5672571#5 -5672571#4 196116983#2 196116983#3 196116983#4 196116983#5 196116983#6 196116983#8 196116983#9 420590070#0 420590070#1 420590070#2 584971377 223889616 46111627#0 46111627#1"/>
    </vehicle>
    <vehicle id="veh17" type="passenger" depart="50.37" departLane="best" departPos="random" departSpeed="random">
        <route edges="5670964#2 5670961#2-AddedOnRampEdge 5670961#2 46111614#0 -5672571#5 -5672571#4 196116983#2 196116983#3 196116983#4 196116983#5 196116983#6 196116983#8 196116983#9 195743149#0 195743149#1 195743149#2 195743149#3 195743149#4 195743149#5 505579776 -5673326 455687907#0"/>
    </vehicle>
    <vehicle id="veh18" type="passenger" depart="53.33" departLane="best" departPos="random" departSpeed="max">
        <route edges="497250990 497250991#1 420881460 195743203#2 195743203#3 -309956784#6 -309956784#5 -309956784#4 -309956784#3 -309956784#1 -309956784#0 -455689184 -196116971#1"/>
    </vehicle>
    <vehicle id="veh19" type="passenger" depart="56.29" departLane="best" departPos="random" departSpeed="random">
        <route edges="-5670226#2 -5670226#1 -5670226#0 -497252083#2 -497252083#1 -497252083#0 -5671914"/>
    </vehicle>
    <vehicle id="veh20" type="passenger" depart="59.26" departLane="best" departPos="random" departSpeed="random">
        <route edges="-349272151#1 349272151#1 349272151#2 -195743134#1 -195743134#0 -420881462 -195743203#2 -195743203#1 -420881458 560344318#1 -560344318#1"/>
    </vehicle>
    <vehicle id="veh21" type="passenger" depart="62.22" departLane="best" departPos="random" departSpeed="random">
        <route edges="-420590071 -68668548 -420590070#1 -420590070#0 195743140#0 5671710#1 5671710#2 45443072 46562966 5670951#2-AddedOnRampEdge 5670951#2 5670951#4 46111619 -5671626"/>
    </vehicle>
    <vehicle id="veh22" type="passenger" depart="65.18" departLane="best" departPos="random" departSpeed="max">
        <route edges="46568293#0 46568293#0-AddedOffRampEdge 50654436 657059020#1 657059020#2 657059020#4 657059020#5 46111627#0 351245252 46111629#1 5670663 733332974 -68668548 -420590070#1 -420590070#0 195743149#0"/>
    </vehicle>
    <vehicle id="veh23" type="passenger" depart="68.15" departLane="best" departPos="random" departSpeed="random">
        <route edges="195743203#2 -195743203#2 -195743203#1 -420881458 -497250991#0"/>
    </vehicle>
    <vehicle id="veh24" type="passenger" depart="71.11" departLane="best" departPos="random" departSpeed="random">
        <route edges="-689902327 195743150#3 195743150#4 195743150#5 -420590068 -420881463 -420590069#0 -309956784#6 -309956784#5 -309956784#4 -309956784#3 630828570#7"/>
    </vehicle>
    <vehicle id="veh25" type="passenger" depart="74.07" departLane="best" departPos="random" departSpeed="max">
        <route edges="46568293#0 46568293#0-AddedOffRampEdge 50654436 657059020#1 657059020#2 657059020#4 657059020#5 46111627#0 351245252 46111629#1 5670663 45443071 45443072 46562966 5670951#2-AddedOnRampEdge 5670951#2 5670951#4 46111619"/>
    </vehicle>
    <vehicle id="veh27" type="passenger" depart="80.00" departLane="best" departPos="random" departSpeed="random">
        <route edges="420590069#1 -420881463 -420590069#0 -420881462 -195743203#2 -195743203#1 -420881458 -560344318#0 46583483"/>
    </vehicle>
    <vehicle id="veh28" type="passenger" depart="82.96" departLane="best" departPos="random" departSpeed="random">
        <route edges="5670951#4 5670961#0 5670961#1 5670961#2-AddedOnRampEdge 5670961#2 46111614#0 -5672571#5 -5672571#4 196116983#2 196116983#3 196116983#4 -5668986#4 -5668986#3 -5668986#2 5668986#2"/>
    </vehicle>
    <vehicle id="veh29" type="passenger" depart="85.92" departLane="best" departPos="random" departSpeed="random">
        <route edges="-5670226#4 195743150#1 195743150#2 195743150#3 195743150#4 195743150#5 -420590068 -420881463 -420590069#0 -420881462 -195743203#2 -195743203#1 -195743188#1"/>
    </vehicle>
    <vehicle id="veh30" type="passenger" depart="88.89" departLane="best" departPos="random" departSpeed="random">
        <route edges="195743140#3 196116983#2 196116983#3 196116983#4 196116983#5 196116983#6 196116983#8 196116983#9 420590070#0 420590070#1 420590070#2 584971377 733073525 733389246#0 5671283 -5671283"/>
    </vehicle>
    <vehicle id="veh31" type="passenger" depart="91.85" departLane="best" departPos="random" departSpeed="max">
        <route edges="-560344318#3 -560344318#2 -560344318#1 497250991#1 420881460 195743203#2 195743203#3 420590069#0 420590069#1 420590068 420590070#0 420590070#1 420590070#2 584971377 733073525 733389246#0 733389246#1 5671533 657059020#1"/>
    </vehicle>
    <vehicle id="veh32" type="passenger" depart="94.81" departLane="best" departPos="random" departSpeed="max">
        <route edges="5671626 -46568321#0 5670961#0 5670961#1 5670961#2-AddedOnRampEdge 5670961#2 46111614#0 -5672571#5 -5672571#4 196116983#2 196116983#3 196116983#4 196116983#5 196116983#6 196116983#8 196116983#9 195743149#0 165470388#2"/>
    </vehicle>
    <vehicle id="veh33" type="passenger" depart="97.77" departLane="best" departPos="random" departSpeed="max">
        <route edges="46568293#0 46568293#0-AddedOffRampEdge 50654436 657059020#1 657059020#2 -5671283 5669820 195743150#2 195743150#3"/>
    </vehicle>
    <vehicle id="veh34" type="passenger" depart="100.74" departLane="best" departPos="random" departSpeed="random">
        <route edges="630828570#1 630828570#2 630828570#3 630828570#4 -309956784#1 -309956784#0 -455689184 -196116971#1 -196116971#0 196117064#0 196117064#1 196116984#0"/>
    </vehicle>
    <vehicle id="veh35" type="passenger" depart="103.70" departLane="best" departPos="random" departSpeed="random">
        <route edges="420590070#0 -420590070#0 -420590068 -420881463 -420590069#0 -420881462 -195743203#2 -195743203#1 -439801905#2 -439801905#0 -630828563#0 -5670859#2 -5670859#1"/>
    </vehicle>
    <vehicle id="veh36" type="passenger" depart="106.66" departLane="best" departPos="random" departSpeed="max">
        <route edges="444907552#0 -196117063#0 196116983#0 196116983#1 196116983#2 196116983#3 196116983#4 196116983#5 196116983#6 196116983#8 196116983#9 420590070#0 420590070#1 420590070#2 584971377 5673213#0"/>
    </vehicle>
    <vehicle id="veh37" type="passenger" depart="109.63" departLane="best" departPos="random" departSpeed="random">
        <route edges="196116983#4 196116983#5 196116983#6 196116983#8 196116983#9 -420590068 -420881463 -420590069#0 -420881462 -195743203#2 -195743203#1 -420881458 -497250991#0"/>
    </vehicle>
    <vehicle id="veh39" type="passenger" depart="115.55" departLane="best" departPos="random" departSpeed="random">
        <route edges="-420590069#0 -420881462 -195743203#2 -195743203#1 -420881458 -560344318#0 -196117056#1 -196117056#0"/>
    </vehicle>
    <vehicle id="veh40" type="passenger" depart="118.51" departLane="best" departPos="random" departSpeed="random">
        <route edges="-420881462 195743203#3 420590069#0 420590069#1 420590068 420590070#0 420590070#1 420590070#2 584971377 223889616 46111627#0 351245252 46111629#1"/>
    </vehicle>
    <vehicle id="veh41" type="passenger" depart="121.48" departLane="best" departPos="random" departSpeed="random">
        <route edges="5670226#4 -733389246#1 -733389246#0 -733073524 -420590071 -68668548 -420590070#1 -420590070#0 -420590068 -420881463 -420590069#0 -309956784#6 -309956784#5 -309956784#4 -309956784#3 -309956784#1 -309956784#0 -455689184 -196116971#1 196116971#1"/>
    </vehicle>
    <vehicle id="veh42" type="passenger" depart="124.44" departLane="best" departPos="random" departSpeed="random">
        <route edges="-309956784#3 309956784#3 309956784#4 309956784#5 309956784#6 420590069#0 420590069#1 420590068 195743149#0 195743149#1 195743149#2 195743149#3 195743149#4 195743149#5"/>
    </vehicle>
    <vehicle id="veh44" type="passenger" depart="130.37" departLane="best" departPos="random" departSpeed="max">
        <route edges="8608691#0 8608691#0-AddedOffRampEdge 5669370#0 5669370#1 5670663 45443071 45443072 46562966 5670951#2-AddedOnRampEdge 5670951#2 5670964#1 5670964#2 5670961#2-AddedOnRampEdge"/>
    </vehicle>
    <vehicle id="veh45" type="passenger" depart="133.33" departLane="best" departPos="random" departSpeed="random">
        <route edges="-195743134#2 195743134#2 195743135#0 195743135#1 195743135#2 195743135#3 195743135#4 5673326 525667719"/>
    </vehicle>
    <vehicle id="veh46" type="passenger" depart="136.29" departLane="best" departPos="random" departSpeed="max">
        <route edges="46594129#0 -560344318#1 497250991#1 420881460 195743203#2 195743203#3 420590069#0"/>
    </vehicle>
    <vehicle id="veh48" type="passenger" depart="142.22" departLane="best" departPos="random" departSpeed="random">
        <route edges="-420881463 420590069#1 420590068 195743140#0 195743140#1 195743140#2 195743140#3 196116983#2"/>
    </vehicle>
    <vehicle id="veh49" type="passenger" depart="145.18" departLane="best" departPos="random" departSpeed="random">
        <route edges="309956784#0 309956784#1 309956784#3 309956784#4 309956784#5 309956784#6 420590069#0 420590069#1 420590068 420590070#0 420590070#1 420590070#2 584971377 733073525 733389246#0 5671283 657059020#4 657059020#5"/>
    </vehicle>
    <vehicle id="veh50" type="passenger" depart="148.14" departLane="best" departPos="random" departSpeed="max">
        <route edges="5671626 -46568321#0 5670961#0 5670961#1 5670961#2-AddedOnRampEdge 5670961#2 46111614#0 -5672571#5 -5672571#4 196116983#2 196116983#3 196116983#4 196116983#5 196116983#6 196116983#8 196116983#9 -420590068 -420881463 -420590069#0 -420881462 -195743203#2 -195743203#1 -439801905#2 -439801905#0 -630828563#0 -5670859#2 -5670859#1"/>
    </vehicle>
    <vehicle id="veh51" type="passenger" depart="151.11" departLane="best" departPos="random" departSpeed="random">
        <route edges="349272151#1 349272151#2 -195743134#1 -195743134#0 420590069#0 420590069#1 420590068 195743140#0 195743140#1 5668986#6 -444907552#3 -444907552#2"/>
    </vehicle>
    <vehicle id="veh52" type="passenger" depart="154.07" departLane="best" departPos="random" departSpeed="random">
        <route edges="630828570#0 630828570#1 630828570#2 630828570#3 630828570#4 -309956784#1 -309956784#0 -418371676#6 5671297#1"/>
    </vehicle>
    <vehicle id="veh54" type="passenger" depart="159.99" departLane="best" departPos="random" departSpeed="random">
        <route edges="46111614#1 -45443072 -5671710#2 -5671710#1 -5671710#0 196116983#8 196116983#9 420590070#0 420590070#1 420590070#2 584971377 -420590071"/>
    </vehicle>
    <vehicle id="veh55" type="passenger" depart="162.96" departLane="best" departPos="random" departSpeed="random">
        <route edges="560344318#1 -560344318#1 497250991#1 420881460 195743203#2 195743203#3 420590069#0 420590069#1"/>
    </vehicle>
    <vehicle id="veh56" type="passenger" depart="165.92" departLane="best" departPos="random" departSpeed="random">
        <route edges="5669370#0 5669370#1 5670663 733332974 -68668548 -420590070#1 -420590070#0 -420590068 -420881463 -420590069#0 -309956784#6 -309956784#5 -309956784#4 -309956784#3 -309956784#1 -309956784#0 -418371676#6 418371676#6"/>
    </vehicle>
    <vehicle id="veh57" type="passenger" depart="168.88" departLane="best" departPos="random" departSpeed="random">
        <route edges="-165893413 418371676#3 418371676#6 309956784#0 309956784#1 309956784#3 309956784#4 309956784#5 309956784#6 421505920 195743134#1 195743134#2"/>
    </vehicle>
    <vehicle id="veh58" type="passenger" depart="171.85" departLane="best" departPos="random" departSpeed="random">
        <route edges="-195743135#2 -195743135#1 -195743135#0 -195743134#2 -195743134#1 -195743134#0 -309956784#6 -309956784#5 -309956784#4 -309956784#3 630828570#7 630828570#8 630828570#9 630828570#10"/>
    </vehicle>
    <vehicle id="veh59" type="passenger" depart="174.81" departLane="best" departPos="random" departSpeed="max">
        <route edges="5671626 -46568321#0 5670961#0 5670961#1 5670961#2-AddedOnRampEdge 5670961#2 46111614#0 46111614#1 5670951#0"/>
    </vehicle>
    <vehicle id="veh60" type="passenger" depart="177.77" departLane="best" departPos="random" departSpeed="random">
        <route edges="195743140#1 196116983#5 196116983#6 196116983#8 196116983#9 -420590068 -420881463 -420590069#0 -420881462 -195743203#2 -195743203#1 -420881458 -560344318#0 -196117056#1 -196117056#0"/>
    </vehicle>
    <vehicle id="veh61" type="passenger" depart="180.73" departLane="best" departPos="random" departSpeed="random">
        <route edges="-418371676#6 418371676#6 -455689184 -196116971#1 -196116971#0 196117064#0 196117064#1"/>
    </vehicle>
    <vehicle id="veh62" type="passenger" depart="183.70" departLane="best" departPos="random" departSpeed="random">
        <route edges="-309956784#4 309956784#4 309956784#5 309956784#6 -420881462 -195743203#2 -195743203#1 -420881458 560344318#1 560344318#2 560344318#3"/>
    </vehicle>
    <vehicle id="veh63" type="passenger" depart="186.66" departLane="best" departPos="random" departSpeed="random">
        <route edges="560344318#2 -560344318#2 -560344318#1 497250991#1 420881460 195743203#2 195743203#3 -309956784#6 -309956784#5 -309956784#4 -309956784#3 -309956784#1 -309956784#0 -418371676#6 -418371676#3 -418371676#2"/>
    </vehicle>
    <vehicle id="veh64" type="passenger" depart="189.62" departLane="best" departPos="random" departSpeed="max">
        <route edges="327917960 196116971#0 196116971#1 455689184 309956784#0 309956784#1 309956784#3 309956784#4 309956784#5 309956784#6 420590069#0 420590069#1 420590068 420590070#0 420590070#1 420590070#2"/>
    </vehicle>
    <vehicle id="veh65" type="passenger" depart="192.58" departLane="best" departPos="random" departSpeed="random">
        <route edges="-68668548 420590070#2 584971377 733073525 733389246#0 733389246#1 5671533"/>
    </vehicle>
    <vehicle id="veh66" type="passenger" depart="195.55" departLane="best" departPos="random" departSpeed="max">
        <route edges="418371676#0 418371676#3 418371676#6 309956784#0 309956784#1 309956784#3 309956784#4 309956784#5 309956784#6 420590069#0 420590069#1 420590068 195743149#0 195743149#1 195743149#2 195743149#3 195743149#4 195743149#5 505579776 525667719"/>
    </vehicle>
    <vehicle id="veh67" type="passenger" depart="198.51" departLane="best" departPos="random" departSpeed="max">
        <route edges="-560344318#3 -560344318#2 -560344318#1 497250991#1 420881460 195743203#2 195743203#3 420590069#0 420590069#1 420590068 420590070#0 420590070#1 420590070#2 584971377 733073525 733389246#0 -733389246#0"/>
    </vehicle>
    <vehicle id="veh69" type="passenger" depart="204.44" departLane="best" departPos="random" departSpeed="random">
        <route edges="196117056#1 560344318#0 497250991#1 420881460 195743203#2 195743203#3 421505920 195743134#1 -349272151#2 349272151#2"/>
    </vehicle>
    <vehicle id="veh70" type="passenger" depart="207.40" departLane="best" departPos="random" departSpeed="random">
        <route edges="-444907552#2 -5672571#4 196116983#2 196116983#3 196116983#4 196116983#5 196116983#6 196116983#8 196116983#9 -420590068 -420881463 -420590069#0 421505920 195743134#1 195743134#2 195743135#0 195743135#1 195743135#2 -5670226#0 497252083#3 -497252083#3"/>
    </vehicle>
    <vehicle id="veh71" type="passenger" depart="210.36" departLane="best" departPos="random" departSpeed="random">
        <route edges="195743149#4 195743149#5 505579776 -5673326 455687907#0"/>
    </vehicle>
    <vehicle id="veh72" type="passenger" depart="213.32" departLane="best" departPos="random" departSpeed="random">
        <route edges="-5670226#4 -5670226#2 -5670226#1 -5670226#0 -497252083#2 -497252083#1 -497252083#0"/>
    </vehicle>
    <vehicle id="veh74" type="passenger" depart="219.25" departLane="best" departPos="random" departSpeed="random">
        <route edges="-5670226#4 -5670226#2 -5670226#1 -5670226#0 -497252083#2 -497252083#1 5673220#1"/>
    </vehicle>
    <vehicle id="veh75" type="passenger" depart="222.21" departLane="best" departPos="random" departSpeed="random">
        <route edges="5670964#1 5670964#2 5670961#2-AddedOnRampEdge 5670961#2 -196117063#1 -196117063#0 -196117064#1 -196117064#0"/>
    </vehicle>
    <vehicle id="veh76" type="passenger" depart="225.18" departLane="best" departPos="random" departSpeed="random">
        <route edges="-5671710#0 5671710#0 5671710#1 5671710#2 45443072 46562966 5670951#2-AddedOnRampEdge 5670951#2 5670951#4 46111619 46568321#1"/>
    </vehicle>
    <vehicle id="veh77" type="passenger" depart="228.14" departLane="best" departPos="random" departSpeed="random">
        <route edges="-5668986#1 -5668986#0 -309956784#4 -309956784#3 -309956784#1 -309956784#0 -418371676#6 -418371676#3 -418371676#2"/>
    </vehicle>
    <vehicle id="veh78" type="passenger" depart="231.10" departLane="best" departPos="random" departSpeed="random">
        <route edges="657059020#4 657059020#5 46111627#0 351245252 46111629#1 5670663 45443071 45443072"/>
    </vehicle>
    <vehicle id="veh79" type="passenger" depart="234.06" departLane="best" departPos="random" departSpeed="random">
        <route edges="309956784#6 420590069#0 420590069#1 420590068 420590070#0 420590070#1 420590070#2 584971377 733073525 733389246#0 733389246#1 5671533 5669326"/>
    </vehicle>
    <vehicle id="veh80" type="passenger" depart="237.03" departLane="best" departPos="random" departSpeed="max">
        <route edges="5670742#0 196117056#1 560344318#0 497250991#1 420881460 195743203#2 195743203#3 420590069#0 420590069#1 420590068 420590070#0 420590070#1 420590070#2 584971377 -46111626"/>
    </vehicle>
    <vehicle id="veh81" type="passenger" depart="239.99" departLane="best" departPos="random" departSpeed="random">
        <route edges="-420590070#0 195743140#0 195743140#1 195743140#2 195743140#3 195743140#4 195743140#5 196116983#0 196116983#1"/>
    </vehicle>
    <vehicle id="veh82" type="passenger" depart="242.95" departLane="best" departPos="random" departSpeed="max">
        <route edges="196117056#0 196117056#1 560344318#0 497250991#1 420881460 195743203#2 195743203#3 420590069#0 420590069#1 420590068 195743140#0 195743140#1 195743140#2 195743140#3 195743140#4 195743140#5 196116984#0 196116984#1"/>
    </vehicle>
    <vehicle id="veh83" type="passenger" depart="245.92" departLane="best" departPos="random" departSpeed="random">
        <route edges="501844298#2 195743150#5 195743140#0 5671710#1 5671710#2 45443072 46562966 5670951#2-AddedOnRampEdge 5670951#2 5670951#4 46111619 46568321#1"/>
    </vehicle>
    <vehicle id="veh84" type="passenger" depart="248.88" departLane="best" departPos="random" departSpeed="max">
        <route edges="8608691#0 8608691#0-AddedOffRampEdge 5669370#0 5669370#1 5670663 733332974 -68668548 -420590070#1 -420590070#0 -420590068 -420881463 -420590069#0 -309956784#6 -309956784#5 -309956784#4 -309956784#3 -309956784#1 -309956784#0 -455689184 -196116971#1 -196116971#0 -327917960"/>
    </vehicle>
    <vehicle id="veh85" type="passenger" depart="251.84" departLane="best" departPos="random" departSpeed="random">
        <route edges="196116983#5 196116983#6 196116983#8 196116983#9 -420590068 -420881463 -420590069#0 421505920 195743134#1 195743134#2 195743135#0 195743135#1 195743135#2 195743135#3"/>
    </vehicle>
    <vehicle id="veh86" type="passenger" depart="254.80" departLane="best" departPos="random" departSpeed="random">
        <route edges="5670964#2 5670961#2-AddedOnRampEdge 5670961#2 46111614#0 -5672571#5 -5672571#4 196116983#2 196116983#3 196116983#4 196116983#5 196116983#6 196116983#8 196116983#9 -420590068 -420881463 -420590069#0 421505920 195743134#1 195743134#2 195743135#0 195743135#1 195743135#2 -5670226#0"/>
    </vehicle>
    <vehicle id="veh87" type="passenger" depart="257.77" departLane="best" departPos="random" departSpeed="random">
        <route edges="-560344318#1 497250991#1 420881460 195743203#2 195743203#3 420590069#0 420590069#1 420590068 195743140#0 195743140#1 196116983#5 196116983#6"/>
    </vehicle>
    <vehicle id="veh88" type="passenger" depart="260.73" departLane="best" departPos="random" departSpeed="max">
        <route edges="196117056#0 196117056#1 560344318#0 497250991#1 420881460 195743203#2 195743203#3 420590069#0 420590069#1 420590068 195743140#0 5671710#1 5671710#2 45443072 46562966 5670951#2-AddedOnRampEdge 5670951#2 5670951#4 46111619 -5671626"/>
    </vehicle>
    <vehicle id="veh89" type="passenger" depart="263.69" departLane="best" departPos="random" departSpeed="random">
        <route edges="-5673220#0 -195743135#0 -195743134#2 -195743134#1 -195743134#0 -420881462 -195743203#2 -195743203#1 -420881458 -560344318#0 46583483 630828568"/>
    </vehicle>
    <vehicle id="veh90" type="passenger" depart="266.66" departLane="best" departPos="random" departSpeed="random">
        <route edges="196117064#0 196117064#1 196116983#0 196116983#1 5672571#4 5672571#5 46111614#1 5670951#0 5670951#1 5670951#2-AddedOnRampEdge 5670951#2 5670964#1 5670964#2 5670961#2-AddedOnRampEdge"/>
    </vehicle>
    <vehicle id="veh91" type="passenger" depart="269.62" departLane="best" departPos="random" departSpeed="random">
        <route edges="420590068 -420590068 -420881463 -420590069#0 -420881462 -195743203#2 -195743203#1 -420881458 -560344318#0 -196117056#1 -196117056#0"/>
    </vehicle>
    <vehicle id="veh93" type="passenger" depart="275.54" departLane="best" departPos="random" departSpeed="max">
        <route edges="8608691#0 8608691#0-AddedOffRampEdge 5669370#0 5669370#1 5670663 733332974 -68668548 -420590070#1 -420590070#0 -420590068 -420881463 -420590069#0 -420881462 -195743203#2 -195743203#1 -439801905#2 -439801905#0 -630828563#0 630828570#0"/>
    </vehicle>
    <vehicle id="veh94" type="passenger" depart="278.51" departLane="best" departPos="random" departSpeed="random">
        <route edges="5670961#1 5670961#2-AddedOnRampEdge 5670961#2 46111614#0 -5672571#5 -5672571#4 196116983#2 196116983#3 196116983#4 196116983#5 196116983#6 196116983#8 196116983#9 -420590068 -420881463 -420590069#0 -420881462 -195743203#2 -195743203#1 -439801905#2 -439801905#0"/>
    </vehicle>
    <vehicle id="veh95" type="passenger" depart="281.47" departLane="best" departPos="random" departSpeed="max">
        <route edges="327917960 196116971#0 196116971#1 455689184 309956784#0 309956784#1 309956784#3 309956784#4 309956784#5 309956784#6 -420881462 -195743203#2 -195743203#1 -420881458 -497250991#0"/>
    </vehicle>
    <vehicle id="veh96" type="passenger" depart="284.43" departLane="best" departPos="random" departSpeed="random">
        <route edges="196116983#5 196116983#6 196116983#8 196116983#9 -420590068 -420881463 -420590069#0 -420881462 -195743203#2 -195743203#1 -420881458 -560344318#0 -196117056#1 -196117056#0"/>
    </vehicle>
    <vehicle id="veh98" type="passenger" depart="290.36" departLane="best" departPos="random" departSpeed="random">
        <route edges="-68668548 420590070#2 584971377 733073525 733389246#0 733389246#1 5671533 5669326"/>
    </vehicle>
    <vehicle id="veh100" type="passenger" depart="296.28" departLane="best" departPos="random" departSpeed="random">
        <route edges="420590069#0 420590069#1 420590068 195743149#0 195743149#1 195743149#2 195743149#3 195743149#4 195743149#5 505579776 525667719"/>
    </vehicle>
    <vehicle id="veh101" type="passenger" depart="299.25" departLane="best" departPos="random" departSpeed="max">
        <route edges="8608691#0 8608691#0-AddedOffRampEdge 5669370#0 5669370#1 5670663 733332974 -68668548 -420590070#1 -420590070#0 195743149#0 195743149#1 195743149#2 195743149#3 195743149#4 195743149#5 505579776 -5673326 455687907#0"/>
    </vehicle>
    <vehicle id="veh102" type="passenger" depart="302.21" departLane="best" departPos="random" departSpeed="max">
        <route edges="418371676#0 418371676#3 418371676#6 309956784#0 309956784#1 309956784#3 309956784#4 309956784#5 309956784#6 -420881462 -195743203#2 -195743203#1 -420881458 -560344318#0 560344318#0"/>
    </vehicle>
    <vehicle id="veh103" type="passenger" depart="305.17" departLane="best" departPos="random" departSpeed="random">
        <route edges="-309956784#0 309956784#0 309956784#1 309956784#3 309956784#4 309956784#5 309956784#6 421505920 195743134#1 195743134#2 195743135#0 195743135#1 195743135#2 195743135#3 195743135#4 455687907#0"/>
    </vehicle>
    <vehicle id="veh104" type="passenger" depart="308.14" departLane="best" departPos="random" departSpeed="random">