<?xml version="1.0" encoding="UTF-8"?>

<!--
Luxembourg SUMO Traffic (LuST) Scenario
This project is licensed under the terms of the MIT license.
Author: Lara CODECA [codeca@gmail.com]
-->

<routes>
    <vTypeDistribution id="private">
        <vType vClass="passenger" id="passenger"  color=".8,.2,.2" accel="2.6" decel="4.5" sigma="0.5" length="5.0" minGap="1.5" maxSpeed="70" probability="1.0" speedDev="0.1" guiShape="passenger/sedan"/> 
    </vTypeDistribution>
	<vType vClass="bus" id="bus" accel="2.6" decel="4.5" sigma="0.5" length="12.0" minGap="3" maxSpeed="30" speedDev="0.1" guiShape="bus">
    <param key="has.rerouting.device" value="false"/>
  </vType>
</routes>