<connections>
	<connection from="418371676_3579432162_42435380_3579432162" to="418371676_3579432162_42435380_1807949739" />
	<connection from="418371676_3579432162_42435380_1807949739" to="418371676_3579432162_42435380_6791440561" />
	<connection from="418371676_3579432162_42435380_6791440561" to="418371676_3579432162_42435380_1669455270" />
	<connection from="418371676_3579432162_42435380_1669455270" to="418371676_3579432162_42435380_1669455264" />
	<connection from="418371676_3579432162_42435380_1669455264" to="418371676_3579432162_42435380_1807949736" />
	<connection from="418371676_3579432162_42435380_1807949736" to="418371676_3579432162_42435380_5694954656" />
	<connection from="418371676_3579432162_42435380_5694954656" to="418371676_3579432162_42435380_6978508651" />
	<connection from="418371676_3579432162_42435380_6978508651" to="418371676_3579432162_42435380_1669455265" />
	<connection from="418371676_3579432162_42435380_1669455265" to="418371676_3579432162_42435380_6978508654" />
	<connection from="418371676_3579432162_42435380_6978508654" to="418371676_3579432162_42435380_1669455266" />
	<connection from="418371676_3579432162_42435380_1669455266" to="418371676_3579432162_42435380_1669455257" />
	<connection from="418371676_3579432162_42435380_1669455257" to="418371676_3579432162_42435380_470209434" />
	<connection from="418371676_3579432162_42435380_470209434" to="418371676_3579432162_42435380_5694954657" />
	<connection from="418371676_3579432162_42435380_5694954657" to="418371676_3579432162_42435380_6250061780" />
	<connection from="418371676_3579432162_42435380_6250061780" to="418371676_3579432162_42435380_1669455259" />
	<connection from="418371676_3579432162_42435380_1669455259" to="418371676_3579432162_42435380_6250061752" />
	<connection from="418371676_3579432162_42435380_6250061752" to="418371676_3579432162_42435380_42435353" />
	<connection from="418371676_3579432162_42435380_42435353" to="418371676_3579432162_42435380_6250061779" />
	<connection from="418371676_3579432162_42435380_6250061779" to="418371676_3579432162_42435380_1669455260" />
	<connection from="418371676_3579432162_42435380_1669455260" to="418371676_3579432162_42435380_6790551435" />
	<connection from="418371676_3579432162_42435380_6790551435" to="418371676_3579432162_42435380_6250061773" />
	<connection from="418371676_3579432162_42435380_6250061773" to="418371676_3579432162_42435380_6250061770" />
	<connection from="418371676_3579432162_42435380_6250061770" to="418371676_3579432162_42435380_1669455258" />
	<connection from="418371676_3579432162_42435380_1669455258" to="418371676_3579432162_42435380_6250061761" />
	<connection from="418371676_3579432162_42435380_6250061761" to="418371676_3579432162_42435380_6250061754" />
	<connection from="418371676_3579432162_42435380_6250061754" to="418371676_3579432162_42435380_6250061765" />
	<connection from="418371676_3579432162_42435380_6250061765" to="418371676_3579432162_42435380_6250061759" />
	<connection from="418371676_3579432162_42435380_6250061759" to="418371676_3579432162_42435380_6250061757" />
	<connection from="418371676_3579432162_42435380_6250061757" to="418371676_3579432162_42435380_6250061772" />
	<connection from="418371676_3579432162_42435380_6250061772" to="418371676_3579432162_42435380_470209421" />
	<connection from="418371676_3579432162_42435380_470209421" to="418371676_3579432162_42435380_6250061778" />
	<connection from="418371676_3579432162_42435380_6250061778" to="418371676_3579432162_42435380_6250061776" />
	<connection from="418371676_3579432162_42435380_6250061776" to="418371676_3579432162_42435380_6250061775" />
	<connection from="418371676_3579432162_42435380_6250061775" to="418371676_3579432162_42435380_1669455269" />
	<connection from="418371676_3579432162_42435380_1669455269" to="418371676_3579432162_42435380_6250061767" />
	<connection from="418371676_3579432162_42435380_6250061767" to="418371676_3579432162_42435380_6250061762" />
	<connection from="418371676_3579432162_42435380_6250061762" to="418371676_3579432162_42435380_6250061763" />
	<connection from="418371676_3579432162_42435380_6250061763" to="418371676_3579432162_42435380_470209420" />
	<connection from="418371676_3579432162_42435380_470209420" to="418371676_3579432162_42435380_6250061777" />
	<connection from="418371676_3579432162_42435380_6250061777" to="418371676_3579432162_42435380_1669455268" />
	<connection from="418371676_3579432162_42435380_1669455268" to="418371676_3579432162_42435380_6250061760" />
	<connection from="418371676_3579432162_42435380_6250061760" to="418371676_3579432162_42435380_6250061768" />
	<connection from="418371676_3579432162_42435380_6250061768" to="418371676_3579432162_42435380_1669455262" />
	<connection from="418371676_3579432162_42435380_1669455262" to="418371676_3579432162_42435380_6250061753" />
	<connection from="418371676_3579432162_42435380_6250061753" to="418371676_3579432162_42435380_1669455263" />
	<connection from="418371676_3579432162_42435380_1669455263" to="418371676_3579432162_42435380_1669455261" />
	<connection from="418371676_3579432162_42435380_1669455261" to="418371676_3579432162_42435380_6794063532" />
	<connection from="418371676_3579432162_42435380_6794063532" to="418371676_3579432162_42435380_1669455267" />
	<connection from="418371676_3579432162_42435380_1669455267" to="418371676_3579432162_42435380_6791440543" />
	<connection from="418371676_3579432162_42435380_6791440543" to="5671297_42435380_3579432161_42435380" />
	<connection from="418371676_3579432162_42435380_6791440543" to="418371676_42435380_42435359_42435380" />
	<connection from="418371676_3579432162_42435380_6791440543" to="418371676_42435380_3579432162_42435380" />
	<connection from="455675302_1504153604_1506591536_1504153604" to="196116984_1506591536_6223571521_1506591536" />
	<connection from="455675302_1504153604_1506591536_1504153604" to="455675302_1506591536_1504153604_1506591536" />
	<connection from="455675302_1504153604_1506591536_1504153604" to="196117063_1506591536_470209122_1506591536" />
	<connection from="444907552_1332860731_42421865_1332860731" to="444907552_1332860731_42421865_6223571509" />
	<connection from="444907552_1332860731_42421865_6223571509" to="444907552_1332860731_42421865_1506616203" />
	<connection from="444907552_1332860731_42421865_1506616203" to="444907552_1332860731_42421865_6868145377" />
	<connection from="444907552_1332860731_42421865_6868145377" to="444907552_1332860731_42421865_6223571510" />
	<connection from="444907552_1332860731_42421865_6223571510" to="444907552_42421865_1332860731_42421865" />
	<connection from="444907552_1332860731_42421865_6223571510" to="5668986_42421865_42421857_42421865" />
	<connection from="444907552_1332860731_42421865_6223571510" to="444907552_42421865_42443181_42421865" />
	<connection from="309956784_42421852_42438928_42421852" to="309956784_42421852_42438928_7087041442" />
	<connection from="309956784_42421852_42438928_7087041442" to="309956784_42421852_42438928_7087063689" />
	<connection from="309956784_42421852_42438928_7087063689" to="309956784_42421852_42438928_3579426492" />
	<connection from="309956784_42421852_42438928_3579426492" to="309956784_42421852_42438928_7198971072" />
	<connection from="309956784_42421852_42438928_7198971072" to="309956784_42438928_3579432162_42438928" />
	<connection from="309956784_42421852_42438928_7198971072" to="630828570_42438928_1506599377_42438928" />
	<connection from="309956784_42421852_42438928_7198971072" to="309956784_42438928_42421852_42438928" />
	<connection from="664903778_6223571522_6223571521_6223571522" to="196116984_6223571521_470209120_6223571521" />
	<connection from="664903778_6223571522_6223571521_6223571522" to="664903778_6223571521_6223571522_6223571521" />
	<connection from="196117063_42429718_470209122_42429718" to="444907552_470209122_1332860731_470209122" />
	<connection from="196117063_42429718_470209122_42429718" to="444907552_470209122_3579426874_470209122" />
	<connection from="196117063_42429718_470209122_42429718" to="196117063_470209122_1506591536_470209122" />
	<connection from="196117063_42429718_470209122_42429718" to="196117063_470209122_42429718_470209122" />
	<connection from="418371676_42435380_3579432162_42435380" to="418371676_42435380_3579432162_6791440543" />
	<connection from="418371676_42435380_3579432162_6791440543" to="418371676_42435380_3579432162_1669455267" />
	<connection from="418371676_42435380_3579432162_1669455267" to="418371676_42435380_3579432162_6794063532" />
	<connection from="418371676_42435380_3579432162_6794063532" to="418371676_42435380_3579432162_1669455261" />
	<connection from="418371676_42435380_3579432162_1669455261" to="418371676_42435380_3579432162_1669455263" />
	<connection from="418371676_42435380_3579432162_1669455263" to="418371676_42435380_3579432162_6250061753" />
	<connection from="418371676_42435380_3579432162_6250061753" to="418371676_42435380_3579432162_1669455262" />
	<connection from="418371676_42435380_3579432162_1669455262" to="418371676_42435380_3579432162_6250061768" />
	<connection from="418371676_42435380_3579432162_6250061768" to="418371676_42435380_3579432162_6250061760" />
	<connection from="418371676_42435380_3579432162_6250061760" to="418371676_42435380_3579432162_1669455268" />
	<connection from="418371676_42435380_3579432162_1669455268" to="418371676_42435380_3579432162_6250061777" />
	<connection from="418371676_42435380_3579432162_6250061777" to="418371676_42435380_3579432162_470209420" />
	<connection from="418371676_42435380_3579432162_470209420" to="418371676_42435380_3579432162_6250061763" />
	<connection from="418371676_42435380_3579432162_6250061763" to="418371676_42435380_3579432162_6250061762" />
	<connection from="418371676_42435380_3579432162_6250061762" to="418371676_42435380_3579432162_6250061767" />
	<connection from="418371676_42435380_3579432162_6250061767" to="418371676_42435380_3579432162_1669455269" />
	<connection from="418371676_42435380_3579432162_1669455269" to="418371676_42435380_3579432162_6250061775" />
	<connection from="418371676_42435380_3579432162_6250061775" to="418371676_42435380_3579432162_6250061776" />
	<connection from="418371676_42435380_3579432162_6250061776" to="418371676_42435380_3579432162_6250061778" />
	<connection from="418371676_42435380_3579432162_6250061778" to="418371676_42435380_3579432162_470209421" />
	<connection from="418371676_42435380_3579432162_470209421" to="418371676_42435380_3579432162_6250061772" />
	<connection from="418371676_42435380_3579432162_6250061772" to="418371676_42435380_3579432162_6250061757" />
	<connection from="418371676_42435380_3579432162_6250061757" to="418371676_42435380_3579432162_6250061759" />
	<connection from="418371676_42435380_3579432162_6250061759" to="418371676_42435380_3579432162_6250061765" />
	<connection from="418371676_42435380_3579432162_6250061765" to="418371676_42435380_3579432162_6250061754" />
	<connection from="418371676_42435380_3579432162_6250061754" to="418371676_42435380_3579432162_6250061761" />
	<connection from="418371676_42435380_3579432162_6250061761" to="418371676_42435380_3579432162_1669455258" />
	<connection from="418371676_42435380_3579432162_1669455258" to="418371676_42435380_3579432162_6250061770" />
	<connection from="418371676_42435380_3579432162_6250061770" to="418371676_42435380_3579432162_6250061773" />
	<connection from="418371676_42435380_3579432162_6250061773" to="418371676_42435380_3579432162_6790551435" />
	<connection from="418371676_42435380_3579432162_6790551435" to="418371676_42435380_3579432162_1669455260" />
	<connection from="418371676_42435380_3579432162_1669455260" to="418371676_42435380_3579432162_6250061779" />
	<connection from="418371676_42435380_3579432162_6250061779" to="418371676_42435380_3579432162_42435353" />
	<connection from="418371676_42435380_3579432162_42435353" to="418371676_42435380_3579432162_6250061752" />
	<connection from="418371676_42435380_3579432162_6250061752" to="418371676_42435380_3579432162_1669455259" />
	<connection from="418371676_42435380_3579432162_1669455259" to="418371676_42435380_3579432162_6250061780" />
	<connection from="418371676_42435380_3579432162_6250061780" to="418371676_42435380_3579432162_5694954657" />
	<connection from="418371676_42435380_3579432162_5694954657" to="418371676_42435380_3579432162_470209434" />
	<connection from="418371676_42435380_3579432162_470209434" to="418371676_42435380_3579432162_1669455257" />
	<connection from="418371676_42435380_3579432162_1669455257" to="418371676_42435380_3579432162_1669455266" />
	<connection from="418371676_42435380_3579432162_1669455266" to="418371676_42435380_3579432162_6978508654" />
	<connection from="418371676_42435380_3579432162_6978508654" to="418371676_42435380_3579432162_1669455265" />
	<connection from="418371676_42435380_3579432162_1669455265" to="418371676_42435380_3579432162_6978508651" />
	<connection from="418371676_42435380_3579432162_6978508651" to="418371676_42435380_3579432162_5694954656" />
	<connection from="418371676_42435380_3579432162_5694954656" to="418371676_42435380_3579432162_1807949736" />
	<connection from="418371676_42435380_3579432162_1807949736" to="418371676_42435380_3579432162_1669455264" />
	<connection from="418371676_42435380_3579432162_1669455264" to="418371676_42435380_3579432162_1669455270" />
	<connection from="418371676_42435380_3579432162_1669455270" to="418371676_42435380_3579432162_6791440561" />
	<connection from="418371676_42435380_3579432162_6791440561" to="418371676_42435380_3579432162_1807949739" />
	<connection from="418371676_42435380_3579432162_1807949739" to="455689184_3579432162_3579432161_3579432162" />
	<connection from="418371676_42435380_3579432162_1807949739" to="418371676_3579432162_42435380_3579432162" />
	<connection from="418371676_42435380_3579432162_1807949739" to="5672571_3579432162_1506599378_3579432162" />
	<connection from="418371676_42435380_3579432162_1807949739" to="309956784_3579432162_42438928_3579432162" />
	<connection from="309956783_3579432161_561035338_3579432161" to="309956783_3579432161_561035338_7004347456" />
	<connection from="309956783_3579432161_561035338_7004347456" to="309956783_561035338_42428844_561035338" />
	<connection from="309956783_3579432161_561035338_7004347456" to="196116983_561035338_1506599378_561035338" />
	<connection from="767729564_7168010780_1504153626_7168010780" to="767729564_7168010780_1504153626_7004347450" />
	<connection from="767729564_7168010780_1504153626_7004347450" to="327917960_1504153626_3347295528_1504153626" />
	<connection from="767729564_7168010780_1504153626_7004347450" to="196116971_1504153626_3579432161_1504153626" />
	<connection from="767729564_7168010780_1504153626_7004347450" to="767729564_1504153626_7168010780_1504153626" />
	<connection from="767729564_7168010780_1504153626_7004347450" to="196117064_1504153626_1504153604_1504153626" />
	<connection from="45443072_42441077_42441091_42441077" to="45443072_42441077_42441091_4013803656" />
	<connection from="45443072_42441077_42441091_4013803656" to="45443072_42441077_42441091_42441080" />
	<connection from="45443072_42441077_42441091_42441080" to="45443072_42441077_42441091_42441083" />
	<connection from="45443072_42441077_42441091_42441083" to="45443072_42441077_42441091_42441085" />
	<connection from="45443072_42441077_42441091_42441085" to="46562966_42441091_42441111_42441091" />
	<connection from="45443072_42441077_42441091_42441085" to="45443072_42441091_42441077_42441091" />
	<connection from="196117063_470209122_42429718_470209122" to="196117063_42429718_470209122_42429718" />
	<connection from="196117063_470209122_42429718_470209122" to="46111614_42429718_1332860726_42429718" />
	<connection from="45443072_42441091_42441077_42441091" to="45443072_42441091_42441077_42441085" />
	<connection from="45443072_42441091_42441077_42441085" to="45443072_42441091_42441077_42441083" />
	<connection from="45443072_42441091_42441077_42441083" to="45443072_42441091_42441077_42441080" />
	<connection from="45443072_42441091_42441077_42441080" to="45443072_42441091_42441077_4013803656" />
	<connection from="45443072_42441091_42441077_4013803656" to="45443072_42441077_42441091_42441077" />
	<connection from="195743140_42428844_1506591536_42428844" to="196116984_1506591536_6223571521_1506591536" />
	<connection from="195743140_42428844_1506591536_42428844" to="455675302_1506591536_1504153604_1506591536" />
	<connection from="195743140_42428844_1506591536_42428844" to="196117063_1506591536_470209122_1506591536" />
	<connection from="5672571_1506591534_1332860731_1506591534" to="5672571_1332860731_1332860726_1332860731" />
	<connection from="5672571_1506591534_1332860731_1506591534" to="444907552_1332860731_42421865_1332860731" />
	<connection from="5672571_1506591534_1332860731_1506591534" to="5672571_1332860731_1506591534_1332860731" />
	<connection from="5672571_1506591534_1332860731_1506591534" to="444907552_1332860731_470209122_1332860731" />
	<connection from="402097156_1506445762_6223571522_1506445762" to="402097156_1506445762_6223571522_3907629301" />
	<connection from="402097156_1506445762_6223571522_3907629301" to="402097156_1506445762_6223571522_2340960670" />
	<connection from="402097156_1506445762_6223571522_2340960670" to="402097156_1506445762_6223571522_6223571524" />
	<connection from="402097156_1506445762_6223571522_6223571524" to="402097156_6223571522_1504153604_6223571522" />
	<connection from="402097156_1506445762_6223571522_6223571524" to="664903778_6223571522_6223571521_6223571522" />
	<connection from="196116984_1506591536_6223571521_1506591536" to="196116984_6223571521_470209120_6223571521" />
	<connection from="196116984_1506591536_6223571521_1506591536" to="664903778_6223571521_6223571522_6223571521" />
	<connection from="418371676_42435359_42435380_42435359" to="418371676_42435359_42435380_1775693480" />
	<connection from="418371676_42435359_42435380_1775693480" to="418371676_42435359_42435380_1775693287" />
	<connection from="418371676_42435359_42435380_1775693287" to="418371676_42435359_42435380_4786589551" />
	<connection from="418371676_42435359_42435380_4786589551" to="418371676_42435359_42435380_6990036159" />
	<connection from="418371676_42435359_42435380_6990036159" to="418371676_42435359_42435380_6818442818" />
	<connection from="418371676_42435359_42435380_6818442818" to="418371676_42435359_42435380_7202234794" />
	<connection from="418371676_42435359_42435380_7202234794" to="418371676_42435359_42435380_1792516986" />
	<connection from="418371676_42435359_42435380_1792516986" to="418371676_42435359_42435380_7099250754" />
	<connection from="418371676_42435359_42435380_7099250754" to="418371676_42435359_42435380_42431186" />
	<connection from="418371676_42435359_42435380_42431186" to="418371676_42435359_42435380_6804416804" />
	<connection from="418371676_42435359_42435380_6804416804" to="418371676_42435359_42435380_42435360" />
	<connection from="418371676_42435359_42435380_42435360" to="418371676_42435359_42435380_42435362" />
	<connection from="418371676_42435359_42435380_42435362" to="418371676_42435359_42435380_6804416829" />
	<connection from="418371676_42435359_42435380_6804416829" to="418371676_42435359_42435380_6804416802" />
	<connection from="418371676_42435359_42435380_6804416802" to="418371676_42435359_42435380_6804416801" />
	<connection from="418371676_42435359_42435380_6804416801" to="418371676_42435359_42435380_6804416803" />
	<connection from="418371676_42435359_42435380_6804416803" to="418371676_42435359_42435380_4941616074" />
	<connection from="418371676_42435359_42435380_4941616074" to="418371676_42435359_42435380_6993998848" />
	<connection from="418371676_42435359_42435380_6993998848" to="418371676_42435359_42435380_6781692068" />
	<connection from="418371676_42435359_42435380_6781692068" to="418371676_42435359_42435380_1506445821" />
	<connection from="418371676_42435359_42435380_1506445821" to="418371676_42435359_42435380_6794063520" />
	<connection from="418371676_42435359_42435380_6794063520" to="418371676_42435359_42435380_7004422485" />
	<connection from="418371676_42435359_42435380_7004422485" to="418371676_42435359_42435380_3579432159" />
	<connection from="418371676_42435359_42435380_3579432159" to="418371676_42435359_42435380_7004321555" />
	<connection from="418371676_42435359_42435380_7004321555" to="418371676_42435359_42435380_1506445789" />
	<connection from="418371676_42435359_42435380_1506445789" to="418371676_42435359_42435380_6907095262" />
	<connection from="418371676_42435359_42435380_6907095262" to="418371676_42435359_42435380_6791440531" />
	<connection from="418371676_42435359_42435380_6791440531" to="418371676_42435359_42435380_6907095259" />
	<connection from="418371676_42435359_42435380_6907095259" to="418371676_42435359_42435380_3579432160" />
	<connection from="418371676_42435359_42435380_3579432160" to="418371676_42435359_42435380_7001614545" />
	<connection from="418371676_42435359_42435380_7001614545" to="418371676_42435359_42435380_4188035934" />
	<connection from="418371676_42435359_42435380_4188035934" to="418371676_42435359_42435380_6864814368" />
	<connection from="418371676_42435359_42435380_6864814368" to="5671297_42435380_3579432161_42435380" />
	<connection from="418371676_42435359_42435380_6864814368" to="418371676_42435380_42435359_42435380" />
	<connection from="418371676_42435359_42435380_6864814368" to="418371676_42435380_3579432162_42435380" />
	<connection from="46562939_3269867944_42441091_3269867944" to="46562939_3269867944_42441091_6868145369" />
	<connection from="46562939_3269867944_42441091_6868145369" to="46562939_3269867944_42441091_6868145376" />
	<connection from="46562939_3269867944_42441091_6868145376" to="46562939_3269867944_42441091_42441095" />
	<connection from="46562939_3269867944_42441091_42441095" to="46562939_3269867944_42441091_7108430032" />
	<connection from="46562939_3269867944_42441091_7108430032" to="46562966_42441091_42441111_42441091" />
	<connection from="46562939_3269867944_42441091_7108430032" to="45443072_42441091_42441077_42441091" />
	<connection from="196117063_470209122_1506591536_470209122" to="196117063_470209122_1506591536_470209121" />
	<connection from="196117063_470209122_1506591536_470209121" to="196116984_1506591536_6223571521_1506591536" />
	<connection from="196117063_470209122_1506591536_470209121" to="455675302_1506591536_1504153604_1506591536" />
	<connection from="196117063_470209122_1506591536_470209121" to="196117063_1506591536_470209122_1506591536" />
	<connection from="5668986_561035342_42421857_561035342" to="5668986_561035342_42421857_2541754741" />
	<connection from="5668986_561035342_42421857_2541754741" to="5668986_42421857_561035342_42421857" />
	<connection from="5668986_561035342_42421857_2541754741" to="5668986_42421857_42421865_42421857" />
	<connection from="5668986_561035342_42421857_2541754741" to="195743140_42421857_1506591534_42421857" />
	<connection from="196116983_561035338_1506599378_561035338" to="196116983_561035338_1506599378_6886294965" />
	<connection from="196116983_561035338_1506599378_6886294965" to="196116983_561035338_1506599378_6886294955" />
	<connection from="196116983_561035338_1506599378_6886294955" to="196116983_561035338_1506599378_6886294945" />
	<connection from="196116983_561035338_1506599378_6886294945" to="5672571_1506599378_1506591534_1506599378" />
	<connection from="196116983_561035338_1506599378_6886294945" to="5672571_1506599378_3579432162_1506599378" />
	<connection from="196116983_561035338_1506599378_6886294945" to="196116983_1506599378_1506599377_1506599378" />
	<connection from="5672571_1506599378_3579432162_1506599378" to="5672571_1506599378_3579432162_6886294931" />
	<connection from="5672571_1506599378_3579432162_6886294931" to="5672571_1506599378_3579432162_1506599382" />
	<connection from="5672571_1506599378_3579432162_1506599382" to="5672571_1506599378_3579432162_2297691110" />
	<connection from="5672571_1506599378_3579432162_2297691110" to="5672571_1506599378_3579432162_6886295086" />
	<connection from="5672571_1506599378_3579432162_6886295086" to="455689184_3579432162_3579432161_3579432162" />
	<connection from="5672571_1506599378_3579432162_6886295086" to="418371676_3579432162_42435380_3579432162" />
	<connection from="5672571_1506599378_3579432162_6886295086" to="5672571_3579432162_1506599378_3579432162" />
	<connection from="5672571_1506599378_3579432162_6886295086" to="309956784_3579432162_42438928_3579432162" />
	<connection from="46111614_42429718_1332860726_42429718" to="46111614_42429718_1332860726_6868145384" />
	<connection from="46111614_42429718_1332860726_6868145384" to="46111614_42429718_1332860726_6868145380" />
	<connection from="46111614_42429718_1332860726_6868145380" to="46111614_42429718_1332860726_42441104" />
	<connection from="46111614_42429718_1332860726_42441104" to="46111614_1332860726_3269867944_1332860726" />
	<connection from="46111614_42429718_1332860726_42441104" to="5672571_1332860726_1332860731_1332860726" />
	<connection from="5668986_561035342_42421852_561035342" to="5668986_561035342_42421852_6791817304" />
	<connection from="5668986_561035342_42421852_6791817304" to="5668986_561035342_42421852_6791817302" />
	<connection from="5668986_561035342_42421852_6791817302" to="5668986_561035342_42421852_6791817303" />
	<connection from="5668986_561035342_42421852_6791817303" to="5668986_561035342_42421852_5481847055" />
	<connection from="5668986_561035342_42421852_5481847055" to="5668986_561035342_42421852_5481847054" />
	<connection from="5668986_561035342_42421852_5481847054" to="5668986_561035342_42421852_5481847060" />
	<connection from="5668986_561035342_42421852_5481847060" to="5668986_561035342_42421852_3579426844" />
	<connection from="5668986_561035342_42421852_3579426844" to="5668986_561035342_42421852_7087041449" />
	<connection from="5668986_561035342_42421852_7087041449" to="5668986_42421852_561035342_42421852" />
	<connection from="5668986_561035342_42421852_7087041449" to="309956784_42421852_42438928_42421852" />
	<connection from="5668986_561035342_42421852_7087041449" to="309956784_42421852_42442584_42421852" />
	<connection from="420590069_4207752456_42442584_4207752456" to="420590069_4207752456_42442584_6823995445" />
	<connection from="420590069_4207752456_42442584_6823995445" to="420590069_42442584_4207752456_42442584" />
	<connection from="420590069_4207752456_42442584_6823995445" to="309956784_42442584_42421852_42442584" />
	<connection from="196116983_1506599377_561035342_1506599377" to="5668986_561035342_42421852_561035342" />
	<connection from="196116983_1506599377_561035342_1506599377" to="196116983_561035342_561035343_561035342" />
	<connection from="196116983_1506599377_561035342_1506599377" to="5668986_561035342_42421857_561035342" />
	<connection from="5668986_42421857_42421865_42421857" to="5668986_42421857_42421865_6223571511" />
	<connection from="5668986_42421857_42421865_6223571511" to="444907552_42421865_1332860731_42421865" />
	<connection from="5668986_42421857_42421865_6223571511" to="5668986_42421865_42421857_42421865" />
	<connection from="5668986_42421857_42421865_6223571511" to="444907552_42421865_42443181_42421865" />
	<connection from="767729564_1504153626_7168010780_1504153626" to="767729564_1504153626_7168010780_7004347450" />
	<connection from="767729564_1504153626_7168010780_7004347450" to="767729564_7168010780_1504153626_7168010780" />
	<connection from="5672571_1332860731_1506591534_1332860731" to="5672571_1506591534_1332860731_1506591534" />
	<connection from="5672571_1332860731_1506591534_1332860731" to="195743140_1506591534_42428844_1506591534" />
	<connection from="5672571_1332860731_1506591534_1332860731" to="5672571_1506591534_1506599378_1506591534" />
	<connection from="630828570_42438923_42438928_42438923" to="630828570_42438923_42438928_6993051350" />
	<connection from="630828570_42438923_42438928_6993051350" to="630828570_42438923_42438928_1775693152" />
	<connection from="630828570_42438923_42438928_1775693152" to="630828570_42438923_42438928_1695379692" />
	<connection from="630828570_42438923_42438928_1695379692" to="630828570_42438923_42438928_6823085608" />
	<connection from="630828570_42438923_42438928_6823085608" to="630828570_42438923_42438928_3579426702" />
	<connection from="630828570_42438923_42438928_3579426702" to="630828570_42438923_42438928_6791440575" />
	<connection from="630828570_42438923_42438928_6791440575" to="309956784_42438928_3579432162_42438928" />
	<connection from="630828570_42438923_42438928_6791440575" to="630828570_42438928_1506599377_42438928" />
	<connection from="630828570_42438923_42438928_6791440575" to="309956784_42438928_42421852_42438928" />
	<connection from="196116983_1504153604_561035338_1504153604" to="309956783_561035338_42428844_561035338" />
	<connection from="196116983_1504153604_561035338_1504153604" to="196116983_561035338_1506599378_561035338" />
	<connection from="196116984_6223571521_470209120_6223571521" to="196116984_6223571521_470209120_6223571523" />
	<connection from="196116984_6223571521_470209120_6223571523" to="196116984_6223571521_470209120_3579426872" />
	<connection from="196116984_6223571521_470209120_3579426872" to="196116984_6223571521_470209120_6223571526" />
	<connection from="196116984_6223571521_470209120_6223571526" to="196116984_6223571521_470209120_5895455151" />
	<connection from="196116984_6223571521_470209120_5895455151" to="196116984_6223571521_470209120_7004416694" />
	<connection from="309956784_42438928_3579432162_42438928" to="309956784_42438928_3579432162_6886295088" />
	<connection from="309956784_42438928_3579432162_6886295088" to="309956784_42438928_3579432162_6791440546" />
	<connection from="309956784_42438928_3579432162_6791440546" to="455689184_3579432162_3579432161_3579432162" />