<nodes>
	<node id="2340960591" x="587681.8730" y="4517924.8829" z="0.0000" type="priority" />
	<node id="1792516986" x="587687.2400" y="4517474.4109" z="0.0000" type="priority" />
	<node id="3907629301" x="587404.1817" y="4517968.8691" z="0.0000" type="priority" />
	<node id="6823995445" x="587996.1776" y="4518610.4057" z="0.0000" type="priority" />
	<node id="6790551435" x="587955.0506" y="4518189.7116" z="0.0000" type="priority" />
	<node id="1705982028" x="587600.8876" y="4518908.7293" z="0.0000" type="priority" />
	<node id="1705982149" x="587601.4020" y="4518914.4309" z="0.0000" type="priority" />
	<node id="3271250957" x="587425.4390" y="4518227.9396" z="0.0000" type="priority" />
	<node id="6868145384" x="587386.8026" y="4518341.5267" z="0.0000" type="priority" />
	<node id="6886295096" x="587889.4304" y="4518335.1168" z="0.0000" type="priority" />
	<node id="6823995457" x="587998.6408" y="4518510.4798" z="0.0000" type="priority" />
	<node id="6886295091" x="587615.2048" y="4518401.7294" z="0.0000" type="priority" />
	<node id="42443181" x="587733.4113" y="4518799.6431" z="0.0000" type="priority" />
	<node id="6781692070" x="587786.6479" y="4518118.0979" z="0.0000" type="priority" />
	<node id="6886295088" x="587896.8655" y="4518322.0488" z="0.0000" type="priority" />
	<node id="6886295086" x="587851.0489" y="4518263.4164" z="0.0000" type="priority" />
	<node id="7004422485" x="587851.9949" y="4517894.1390" z="0.0000" type="priority" />
	<node id="6993998848" x="587771.2968" y="4517746.2624" z="0.0000" type="priority" />
	<node id="6868145377" x="587608.6266" y="4518567.4549" z="0.0000" type="priority" />
	<node id="6868145376" x="587539.3040" y="4518603.9600" z="0.0000" type="priority" />
	<node id="6868145373" x="587467.6833" y="4518469.7390" z="0.0000" type="priority" />
	<node id="595314034" x="587537.7703" y="4518615.9435" z="0.0000" type="priority" />
	<node id="595314035" x="587534.4463" y="4518617.4141" z="0.0000" type="priority" />
	<node id="1775693287" x="587640.8555" y="4517288.6731" z="0.0000" type="priority" />
	<node id="42431186" x="587697.7798" y="4517519.0010" z="0.0000" type="priority" />
	<node id="3347295528" x="587676.3757" y="4517914.6701" z="0.0000" type="priority" />
	<node id="4013803653" x="587669.2164" y="4518679.8635" z="0.0000" type="priority" />
	<node id="4013803650" x="587706.0387" y="4518748.5580" z="0.0000" type="priority" />
	<node id="4013803656" x="587580.2349" y="4518681.2735" z="0.0000" type="priority" />
	<node id="6781692068" x="587772.2545" y="4517748.0280" z="0.0000" type="priority" />
	<node id="6868145380" x="587390.2953" y="4518345.7758" z="0.0000" type="priority" />
	<node id="42438928" x="587900.7036" y="4518329.1556" z="0.0000" type="priority" />
	<node id="470209122" x="587457.9671" y="4518288.5104" z="0.0000" type="priority" />
	<node id="5763775589" x="587828.5958" y="4518750.9902" z="0.0000" type="priority" />
	<node id="470209121" x="587526.1462" y="4518251.9022" z="0.0000" type="priority" />
	<node id="470209120" x="587382.2501" y="4517967.2998" z="0.0000" type="priority" />
	<node id="3579426479" x="587721.3330" y="4518424.2712" z="0.0000" type="priority" />
	<node id="1775693152" x="588091.1504" y="4518225.9160" z="0.0000" type="priority" />
	<node id="6868145369" x="587530.1317" y="4518592.1272" z="0.0000" type="priority" />
	<node id="7202234794" x="587673.9977" y="4517422.2170" z="0.0000" type="priority" />
	<node id="4941616074" x="587754.8870" y="4517715.8247" z="0.0000" type="priority" />
	<node id="6868145370" x="587521.8180" y="4518594.6934" z="0.0000" type="priority" />
	<node id="1705982178" x="587604.3110" y="4518930.1753" z="0.0000" type="priority" />
	<node id="42442577" x="587710.2630" y="4517977.9560" z="0.0000" type="priority" />
	<node id="42442578" x="587748.1006" y="4518048.1059" z="0.0000" type="priority" />
	<node id="42435360" x="587717.7795" y="4517598.1985" z="0.0000" type="priority" />
	<node id="42435362" x="587737.6019" y="4517679.5035" z="0.0000" type="priority" />
	<node id="1705982064" x="587540.5538" y="4518653.7025" z="0.0000" type="priority" />
	<node id="2340960702" x="587584.2093" y="4518221.1922" z="0.0000" type="priority" />
	<node id="42442584" x="588026.9840" y="4518564.9749" z="0.0000" type="priority" />
	<node id="42441134" x="587574.3681" y="4518717.2425" z="0.0000" type="priority" />
	<node id="3579426492" x="587935.5969" y="4518394.0535" z="0.0000" type="priority" />
	<node id="42441119" x="587558.3903" y="4518686.0663" z="0.0000" type="priority" />
	<node id="42441115" x="587548.3205" y="4518668.1166" z="0.0000" type="priority" />
	<node id="470209421" x="587959.2699" y="4518176.1169" z="0.0000" type="priority" />
	<node id="2133873543" x="587792.9792" y="4518129.7973" z="0.0000" type="priority" />
	<node id="470209420" x="587960.5921" y="4518160.7002" z="0.0000" type="priority" />
	<node id="2291820973" x="587760.7942" y="4518125.7625" z="0.0000" type="priority" />
	<node id="1669455257" x="587940.6610" y="4518211.5565" z="0.0000" type="priority" />
	<node id="1669455258" x="587956.8167" y="4518185.2028" z="0.0000" type="priority" />
	<node id="1669455259" x="587949.1016" y="4518201.2095" z="0.0000" type="priority" />
	<node id="5681037047" x="587825.5738" y="4518745.5030" z="0.0000" type="priority" />
	<node id="1705982071" x="587602.9535" y="4518925.1520" z="0.0000" type="priority" />
	<node id="6804416829" x="587739.2470" y="4517685.9069" z="0.0000" type="priority" />
	<node id="42428844" x="587573.1219" y="4518323.9913" z="0.0000" type="priority" />
	<node id="6978508654" x="587937.0763" y="4518215.0666" z="0.0000" type="priority" />
	<node id="6978508651" x="587933.9406" y="4518217.7050" z="0.0000" type="priority" />
	<node id="1669455260" x="587954.7734" y="4518190.3189" z="0.0000" type="priority" />
	<node id="1669455261" x="587958.4232" y="4518144.4649" z="0.0000" type="priority" />
	<node id="7001614545" x="587923.5842" y="4518050.7902" z="0.0000" type="priority" />
	<node id="1669455262" x="587960.1242" y="4518153.2338" z="0.0000" type="priority" />
	<node id="1669455263" x="587959.3625" y="4518148.4729" z="0.0000" type="priority" />
	<node id="3579426702" x="587983.6751" y="4518284.5005" z="0.0000" type="priority" />
	<node id="470209434" x="587944.1228" y="4518207.7451" z="0.0000" type="priority" />
	<node id="1669455264" x="587926.4080" y="4518222.6337" z="0.0000" type="priority" />
	<node id="1669455265" x="587935.6781" y="4518216.3046" z="0.0000" type="priority" />
	<node id="42441104" x="587445.5187" y="4518449.4813" z="0.0000" type="priority" />
	<node id="1669455266" x="587938.3640" y="4518213.8940" z="0.0000" type="priority" />
	<node id="6816455652" x="587834.9099" y="4518181.9105" z="0.0000" type="priority" />
	<node id="1332860731" x="587536.4010" y="4518433.8144" z="0.0000" type="priority" />
	<node id="1669455267" x="587955.8771" y="4518136.5408" z="0.0000" type="priority" />
	<node id="42421852" x="587982.5597" y="4518479.5791" z="0.0000" type="priority" />
	<node id="1669455268" x="587960.4830" y="4518157.8123" z="0.0000" type="priority" />
	<node id="1669455269" x="587960.2679" y="4518169.5117" z="0.0000" type="priority" />
	<node id="42421857" x="587727.4621" y="4518612.2191" z="0.0000" type="priority" />
	<node id="4786589551" x="587650.5352" y="4517329.7223" z="0.0000" type="priority" />
	<node id="6794063520" x="587780.8133" y="4517763.9838" z="0.0000" type="priority" />
	<node id="5481847060" x="587926.3085" y="4518509.7413" z="0.0000" type="priority" />
	<node id="7198971072" x="587903.8397" y="4518334.9884" z="0.0000" type="priority" />
	<node id="2308955220" x="587713.9172" y="4517984.9495" z="0.0000" type="priority" />
	<node id="42441111" x="587529.4713" y="4518622.9619" z="0.0000" type="priority" />
	<node id="6886294965" x="587597.9540" y="4518329.1483" z="0.0000" type="priority" />
	<node id="1669455270" x="587917.5834" y="4518227.6803" z="0.0000" type="priority" />
	<node id="42435353" x="587952.6701" y="4518194.8126" z="0.0000" type="priority" />
	<node id="1504153626" x="587783.9397" y="4518113.1585" z="0.0000" type="priority" />
	<node id="42435359" x="587638.6559" y="4517273.5256" z="0.0000" type="priority" />
	<node id="1332860726" x="587459.1614" y="4518474.2012" z="0.0000" type="priority" />
	<node id="42421865" x="587653.5284" y="4518650.5892" z="0.0000" type="priority" />
	<node id="3579432162" x="587861.9164" y="4518257.5280" z="0.0000" type="priority" />
	<node id="3579432163" x="587689.4923" y="4518164.4411" z="0.0000" type="priority" />
	<node id="3579432160" x="587919.2231" y="4518039.4249" z="0.0000" type="priority" />
	<node id="3579432161" x="587824.2765" y="4518187.2577" z="0.0000" type="priority" />
	<node id="6791817303" x="587774.2934" y="4518590.9699" z="0.0000" type="priority" />
	<node id="6791817302" x="587764.2543" y="4518595.3361" z="0.0000" type="priority" />
	<node id="6794063532" x="587957.3381" y="4518140.6661" z="0.0000" type="priority" />
	<node id="6804416803" x="587741.2648" y="4517691.4598" z="0.0000" type="priority" />
	<node id="6791817304" x="587755.3200" y="4518599.0048" z="0.0000" type="priority" />
	<node id="6804416804" x="587715.6535" y="4517590.3794" z="0.0000" type="priority" />
	<node id="3579432159" x="587855.4478" y="4517900.3085" z="0.0000" type="priority" />
	<node id="7004321555" x="587858.9154" y="4517906.6670" z="0.0000" type="priority" />
	<node id="1506445821" x="587776.0187" y="4517754.9895" z="0.0000" type="priority" />
	<node id="5481847054" x="587853.2233" y="4518548.9411" z="0.0000" type="priority" />
	<node id="5481847055" x="587785.4570" y="4518585.6733" z="0.0000" type="priority" />
	<node id="6804416801" x="587740.4158" y="4517689.7844" z="0.0000" type="priority" />
	<node id="6804416802" x="587739.8208" y="4517688.0231" z="0.0000" type="priority" />
	<node id="3579426846" x="587856.8166" y="4518352.3376" z="0.0000" type="priority" />
	<node id="6223571522" x="587515.0328" y="4518175.9634" z="0.0000" type="priority" />
	<node id="6223571521" x="587498.4108" y="4518185.5479" z="0.0000" type="priority" />
	<node id="6250061770" x="587956.4495" y="4518186.2865" z="0.0000" type="priority" />
	<node id="3579426844" x="587933.7368" y="4518505.7551" z="0.0000" type="priority" />
	<node id="6223571520" x="587679.8994" y="4518446.9504" z="0.0000" type="priority" />
	<node id="6250061773" x="587955.9973" y="4518187.4246" z="0.0000" type="priority" />
	<node id="6250061772" x="587958.9309" y="4518177.6672" z="0.0000" type="priority" />
	<node id="6223571526" x="587434.7435" y="4518066.0101" z="0.0000" type="priority" />
	<node id="6223571524" x="587476.7077" y="4518104.1214" z="0.0000" type="priority" />
	<node id="6223571523" x="587459.7733" y="4518113.0028" z="0.0000" type="priority" />
	<node id="7087063689" x="587938.6435" y="4518399.6076" z="0.0000" type="priority" />
	<node id="42429718" x="587376.6653" y="4518329.2164" z="0.0000" type="priority" />
	<node id="5481847043" x="587802.1888" y="4518703.8686" z="0.0000" type="priority" />
	<node id="6250061768" x="587960.2991" y="4518154.8347" z="0.0000" type="priority" />
	<node id="6250061767" x="587960.3708" y="4518167.9586" z="0.0000" type="priority" />
	<node id="6886294945" x="587611.9688" y="4518351.6302" z="0.0000" type="priority" />
	<node id="7198971058" x="587857.5674" y="4518249.4049" z="0.0000" type="priority" />
	<node id="42441171" x="587604.4763" y="4518872.1005" z="0.0000" type="priority" />
	<node id="6250061763" x="587960.5393" y="4518163.7195" z="0.0000" type="priority" />
	<node id="42441173" x="587603.3184" y="4518880.1249" z="0.0000" type="priority" />
	<node id="6250061765" x="587957.8873" y="4518181.7183" z="0.0000" type="priority" />
	<node id="42441158" x="587601.0979" y="4518793.4775" z="0.0000" type="priority" />
	<node id="1504153604" x="587549.5780" y="4518239.9781" z="0.0000" type="priority" />
	<node id="6250061780" x="587947.4621" y="4518203.5881" z="0.0000" type="priority" />
	<node id="6880376109" x="587986.2379" y="4518486.6396" z="0.0000" type="priority" />
	<node id="7108430031" x="587540.7414" y="4518616.4894" z="0.0000" type="priority" />
	<node id="7108430030" x="587543.0103" y="4518617.9263" z="0.0000" type="priority" />
	<node id="1695379674" x="587607.9068" y="4518838.8672" z="0.0000" type="priority" />
	<node id="2541754741" x="587737.6621" y="4518607.0887" z="0.0000" type="priority" />
	<node id="6250061779" x="587953.7674" y="4518192.6273" z="0.0000" type="priority" />
	<node id="6250061778" x="587959.6010" y="4518174.5221" z="0.0000" type="priority" />
	<node id="42441166" x="587607.8887" y="4518843.2413" z="0.0000" type="priority" />
	<node id="6886294955" x="587605.0824" y="4518340.5017" z="0.0000" type="priority" />
	<node id="6250061775" x="587960.0595" y="4518171.4299" z="0.0000" type="priority" />
	<node id="561035338" x="587589.7141" y="4518314.0624" z="0.0000" type="priority" />
	<node id="42441162" x="587605.2106" y="4518815.8421" z="0.0000" type="priority" />
	<node id="6250061777" x="587960.5654" y="4518159.4009" z="0.0000" type="priority" />
	<node id="6250061776" x="587959.7996" y="4518173.4253" z="0.0000" type="priority" />
	<node id="7108430029" x="587544.9240" y="4518619.4478" z="0.0000" type="priority" />
	<node id="5895455151" x="587431.7652" y="4518060.3459" z="0.0000" type="priority" />
	<node id="561035342" x="587748.0133" y="4518602.0046" z="0.0000" type="priority" />
	<node id="1705982209" x="587601.6623" y="4518893.1840" z="0.0000" type="priority" />
	<node id="42435380" x="587950.3910" y="4518121.8980" z="0.0000" type="priority" />
	<node id="7087041442" x="587941.1287" y="4518404.1336" z="0.0000" type="priority" />
	<node id="6223571509" x="587576.1955" y="4518507.4506" z="0.0000" type="priority" />
	<node id="1506616203" x="587585.6553" y="4518524.9269" z="0.0000" type="priority" />
	<node id="1506616204" x="587660.5422" y="4518485.2019" z="0.0000" type="priority" />
	<node id="4207752456" x="587979.6156" y="4518634.8227" z="0.0000" type="priority" />
	<node id="1506599382" x="587742.7185" y="4518323.1932" z="0.0000" type="priority" />
	<node id="2541754772" x="587582.9219" y="4518318.4673" z="0.0000" type="priority" />
	<node id="42428858" x="587808.1742" y="4518762.3940" z="0.0000" type="priority" />
	<node id="1506346479" x="587826.9746" y="4518797.9897" z="0.0000" type="priority" />
	<node id="7108430032" x="587543.6032" y="4518611.3163" z="0.0000" type="priority" />
	<node id="1705982205" x="587602.1137" y="4518919.8573" z="0.0000" type="priority" />
	<node id="3579426872" x="587456.9428" y="4518107.6846" z="0.0000" type="priority" />
	<node id="42441156" x="587598.7068" y="4518781.0034" z="0.0000" type="priority" />
	<node id="561035343" x="587859.6600" y="4518812.9001" z="0.0000" type="priority" />
	<node id="42428850" x="587649.4019" y="4518464.3416" z="0.0000" type="priority" />
	<node id="42441150" x="587595.6126" y="4518766.6446" z="0.0000" type="priority" />
	<node id="6223571511" x="587665.9539" y="4518644.1417" z="0.0000" type="priority" />
	<node id="7004347450" x="587794.9677" y="4518107.2608" z="0.0000" type="priority" />
	<node id="6223571510" x="587632.0680" y="4518610.8656" z="0.0000" type="priority" />
	<node id="7004347451" x="587778.1345" y="4518102.6200" z="0.0000" type="priority" />
	<node id="6990036159" x="587654.8393" y="4517346.6823" z="0.0000" type="priority" />
	<node id="42441138" x="587584.6819" y="4518737.3712" z="0.0000" type="priority" />
	<node id="3579426874" x="587423.2349" y="4518223.8611" z="0.0000" type="priority" />
	<node id="6223571512" x="587693.0989" y="4518724.4233" z="0.0000" type="priority" />
	<node id="6791440531" x="587898.3596" y="4517980.6671" z="0.0000" type="priority" />
	<node id="7004347456" x="587812.2629" y="4518193.7542" z="0.0000" type="priority" />
	<node id="7004347457" x="587678.9427" y="4517919.4412" z="0.0000" type="priority" />
	<node id="7004347455" x="587828.1552" y="4518194.4981" z="0.0000" type="priority" />
	<node id="7004347452" x="587772.2565" y="4518119.5258" z="0.0000" type="priority" />
	<node id="7004347453" x="587751.4203" y="4518054.1295" z="0.0000" type="priority" />
	<node id="42428863" x="587845.0488" y="4518832.2223" z="0.0000" type="priority" />
	<node id="6886295101" x="587634.1538" y="4518391.5066" z="0.0000" type="priority" />
	<node id="4188035934" x="587935.8162" y="4518082.6997" z="0.0000" type="priority" />
	<node id="1506599375" x="587779.7638" y="4518393.8114" z="0.0000" type="priority" />
	<node id="42441142" x="587592.3083" y="4518755.7806" z="0.0000" type="priority" />
	<node id="1506591536" x="587532.1992" y="4518248.6542" z="0.0000" type="priority" />
	<node id="1506599378" x="587629.9882" y="4518383.5523" z="0.0000" type="priority" />
	<node id="6886294935" x="587675.8672" y="4518449.0898" z="0.0000" type="priority" />
	<node id="1506599377" x="587667.9555" y="4518453.3037" z="0.0000" type="priority" />
	<node id="1705982216" x="587606.8740" y="4518827.7969" z="0.0000" type="priority" />
	<node id="1807949737" x="587864.1794" y="4518167.1923" z="0.0000" type="priority" />
	<node id="1705982214" x="587531.7074" y="4518619.3357" z="0.0000" type="priority" />
	<node id="1807949736" x="587930.0448" y="4518220.4232" z="0.0000" type="priority" />
	<node id="1807949739" x="587866.8490" y="4518254.8776" z="0.0000" type="priority" />
	<node id="6886294931" x="587637.3314" y="4518379.6203" z="0.0000" type="priority" />
	<node id="1506591534" x="587610.9124" y="4518393.7958" z="0.0000" type="priority" />
	<node id="6791440543" x="587952.5896" y="4518127.8307" z="0.0000" type="priority" />
	<node id="6818442818" x="587667.7515" y="4517397.5733" z="0.0000" type="priority" />
	<node id="2340960670" x="587448.2703" y="4518051.3816" z="0.0000" type="priority" />
	<node id="42441091" x="587547.2283" y="4518621.4513" z="0.0000" type="priority" />
	<node id="7004416694" x="587388.2906" y="4517978.6845" z="0.0000" type="priority" />
	<node id="6907095259" x="587899.7476" y="4517984.5473" z="0.0000" type="priority" />
	<node id="42441095" x="587541.2834" y="4518607.0477" z="0.0000" type="priority" />
	<node id="6907095262" x="587896.5655" y="4517976.1826" z="0.0000" type="priority" />
	<node id="42438923" x="588141.4970" y="4518198.0827" z="0.0000" type="priority" />
	<node id="3269867944" x="587517.3734" y="4518578.2425" z="0.0000" type="priority" />
	<node id="2541754778" x="587620.5164" y="4518388.4361" z="0.0000" type="priority" />
	<node id="6916346847" x="587821.3127" y="4518181.8156" z="0.0000" type="priority" />
	<node id="42441080" x="587559.8312" y="4518642.0401" z="0.0000" type="priority" />
	<node id="7168010780" x="587823.3743" y="4518092.0548" z="0.0000" type="priority" />
	<node id="6791440546" x="587866.9963" y="4518266.6147" z="0.0000" type="priority" />
	<node id="7087041449" x="587970.4028" y="4518486.0959" z="0.0000" type="priority" />
	<node id="6993051350" x="588130.3389" y="4518204.2559" z="0.0000" type="priority" />
	<node id="42441083" x="587554.0491" y="4518633.8336" z="0.0000" type="priority" />
	<node id="1506445762" x="587399.0214" y="4517958.6716" z="0.0000" type="priority" />
	<node id="42441085" x="587549.3500" y="4518625.3512" z="0.0000" type="priority" />
	<node id="6791440561" x="587872.7238" y="4518251.7278" z="0.0000" type="priority" />
	<node id="1775693480" x="587639.3208" y="4517277.9300" z="0.0000" type="priority" />
	<node id="2297691110" x="587812.3848" y="4518284.3403" z="0.0000" type="priority" />
	<node id="6823085608" x="587986.9254" y="4518282.8627" z="0.0000" type="priority" />
	<node id="6871927724" x="587851.6485" y="4518797.1394" z="0.0000" type="priority" />
	<node id="42441191" x="587608.8151" y="4518942.9965" z="0.0000" type="priority" />
	<node id="1705982127" x="587533.8735" y="4518638.0023" z="0.0000" type="priority" />
	<node id="42441077" x="587661.9304" y="4518838.3197" z="0.0000" type="priority" />
	<node id="6813350876" x="587606.6903" y="4518855.3954" z="0.0000" type="priority" />
	<node id="6813350873" x="587606.1798" y="4518862.1729" z="0.0000" type="priority" />
	<node id="6871927728" x="587850.4568" y="4518794.5050" z="0.0000" type="priority" />
	<node id="6250061760" x="587960.4060" y="4518156.4902" z="0.0000" type="priority" />
	<node id="6250061762" x="587960.4641" y="4518165.7836" z="0.0000" type="priority" />
	<node id="6250061761" x="587957.2015" y="4518184.0527" z="0.0000" type="priority" />
	<node id="42441179" x="587602.3607" y="4518887.6299" z="0.0000" type="priority" />
	<node id="6791440576" x="587942.1071" y="4518126.1517" z="0.0000" type="priority" />
	<node id="5694954656" x="587931.7628" y="4518219.2446" z="0.0000" type="priority" />
	<node id="6791440575" x="587911.3410" y="4518323.4533" z="0.0000" type="priority" />
	<node id="6864814368" x="587947.8415" y="4518115.6726" z="0.0000" type="priority" />
	<node id="6916346823" x="587790.0901" y="4518124.4561" z="0.0000" type="priority" />
	<node id="5694954657" x="587945.5261" y="4518206.0743" z="0.0000" type="priority" />
	<node id="6823995476" x="588019.5660" y="4518550.3868" z="0.0000" type="priority" />
	<node id="1695379692" x="588056.5810" y="4518245.0556" z="0.0000" type="priority" />
	<node id="7099250754" x="587689.1197" y="4517482.3714" z="0.0000" type="priority" />
	<node id="6250061757" x="587958.6363" y="4518179.0293" z="0.0000" type="priority" />
	<node id="42441187" x="587601.1642" y="4518903.8919" z="0.0000" type="priority" />
	<node id="1506445789" x="587894.1369" y="4517971.1355" z="0.0000" type="priority" />
	<node id="6813350867" x="587563.2382" y="4518695.5164" z="0.0000" type="priority" />
	<node id="42453717" x="587893.5525" y="4518761.0328" z="0.0000" type="priority" />
	<node id="6250061759" x="587958.2829" y="4518180.3685" z="0.0000" type="priority" />
	<node id="1705982137" x="587531.2681" y="4518629.3671" z="0.0000" type="priority" />
	<node id="6250061753" x="587959.8526" y="4518151.2433" z="0.0000" type="priority" />
	<node id="6250061752" x="587951.6076" y="4518196.9094" z="0.0000" type="priority" />
	<node id="42441184" x="587601.2949" y="4518898.5643" z="0.0000" type="priority" />
	<node id="6250061754" x="587957.5350" y="4518182.9686" z="0.0000" type="priority" />
</nodes>
