<?xml version="1.0" encoding="UTF-8"?>

<!-- generated on Mon Dec  9 13:00:38 2019 by Eclipse SUMO netconvert Version 1.2.0
<configuration xmlns:xsi="http://www.w3.org/2001/XMLSchema-instance" xsi:noNamespaceSchemaLocation="http://sumo.dlr.de/xsd/netconvertConfiguration.xsd">

    <input>
        <type-files value="/Users/lillian/sumo_binaries/bin/data/typemap/osmNetconvert.typ.xml"/>
        <osm-files value="osm_bbox.osm.xml"/>
    </input>

    <output>
        <output-file value="osm.net.xml"/>
        <output.street-names value="true"/>
        <output.original-names value="true"/>
    </output>

    <projection>
        <proj.utm value="true"/>
    </projection>

    <processing>
        <geometry.remove value="true"/>
        <roundabouts.guess value="true"/>
    </processing>

    <tls_building>
        <tls.discard-simple value="true"/>
        <tls.join value="true"/>
        <tls.guess-signals value="true"/>
        <tls.default-type value="actuated"/>
    </tls_building>

    <ramp_guessing>
        <ramps.guess value="true"/>
    </ramp_guessing>

    <junctions>
        <junctions.join value="true"/>
        <junctions.corner-detail value="5"/>
    </junctions>

    <report>
        <verbose value="true"/>
    </report>

</configuration>
-->

<net version="1.1" junctionCornerDetail="5" limitTurnSpeed="5.50" xmlns:xsi="http://www.w3.org/2001/XMLSchema-instance" xsi:noNamespaceSchemaLocation="http://sumo.dlr.de/xsd/net_file.xsd">

    <location netOffset="-586160.70,-4513966.34" convBoundary="0.00,0.00,4349.70,9781.76" origBoundary="-73.979031,40.772158,-73.926078,40.859795" projParameter="+proj=utm +zone=18 +ellps=WGS84 +datum=WGS84 +units=m +no_defs"/>

    <type id="highway.bridleway" priority="1" numLanes="1" speed="2.78" allow="pedestrian" oneway="1" width="2.00"/>
    <type id="highway.bus_guideway" priority="1" numLanes="1" speed="27.78" allow="bus" oneway="1"/>
    <type id="highway.cycleway" priority="1" numLanes="1" speed="8.33" allow="bicycle" oneway="0" width="1.00"/>
    <type id="highway.footway" priority="1" numLanes="1" speed="2.78" allow="pedestrian" oneway="1" width="2.00"/>
    <type id="highway.ford" priority="1" numLanes="1" speed="2.78" allow="army" oneway="0"/>
    <type id="highway.living_street" priority="3" numLanes="1" speed="2.78" disallow="tram rail_urban rail rail_electric ship" oneway="0"/>
    <type id="highway.motorway" priority="13" numLanes="2" speed="44.44" allow="private emergency authority army vip passenger hov taxi bus coach delivery truck trailer motorcycle evehicle custom1 custom2" oneway="1"/>
    <type id="highway.motorway_link" priority="12" numLanes="1" speed="22.22" allow="private emergency authority army vip passenger hov taxi bus coach delivery truck trailer motorcycle evehicle custom1 custom2" oneway="1"/>
    <type id="highway.path" priority="1" numLanes="1" speed="2.78" allow="bicycle pedestrian" oneway="1" width="2.00"/>
    <type id="highway.pedestrian" priority="1" numLanes="1" speed="2.78" allow="pedestrian" oneway="1" width="2.00"/>
    <type id="highway.primary" priority="9" numLanes="2" speed="27.78" disallow="tram rail_urban rail rail_electric ship" oneway="0"/>
    <type id="highway.primary_link" priority="8" numLanes="1" speed="22.22" disallow="tram rail_urban rail rail_electric ship" oneway="0"/>
    <type id="highway.raceway" priority="14" numLanes="2" speed="83.33" allow="vip" oneway="0"/>
    <type id="highway.residential" priority="4" numLanes="1" speed="13.89" disallow="tram rail_urban rail rail_electric ship" oneway="0"/>
    <type id="highway.secondary" priority="7" numLanes="2" speed="27.78" disallow="tram rail_urban rail rail_electric ship" oneway="0"/>
    <type id="highway.secondary_link" priority="6" numLanes="1" speed="22.22" disallow="tram rail_urban rail rail_electric ship" oneway="0"/>
    <type id="highway.service" priority="2" numLanes="1" speed="5.56" allow="delivery bicycle pedestrian" oneway="0"/>
    <type id="highway.stairs" priority="1" numLanes="1" speed="1.39" allow="pedestrian" oneway="1" width="2.00"/>
    <type id="highway.step" priority="1" numLanes="1" speed="1.39" allow="pedestrian" oneway="1" width="2.00"/>
    <type id="highway.steps" priority="1" numLanes="1" speed="1.39" allow="pedestrian" oneway="1" width="2.00"/>
    <type id="highway.tertiary" priority="6" numLanes="1" speed="22.22" disallow="tram rail_urban rail rail_electric ship" oneway="0"/>
    <type id="highway.tertiary_link" priority="5" numLanes="1" speed="22.22" disallow="tram rail_urban rail rail_electric ship" oneway="0"/>
    <type id="highway.track" priority="1" numLanes="1" speed="5.56" disallow="tram rail_urban rail rail_electric ship" oneway="0"/>
    <type id="highway.trunk" priority="11" numLanes="2" speed="27.78" disallow="tram rail_urban rail rail_electric bicycle pedestrian ship" oneway="0"/>
    <type id="highway.trunk_link" priority="10" numLanes="1" speed="22.22" disallow="tram rail_urban rail rail_electric bicycle pedestrian ship" oneway="0"/>
    <type id="highway.unclassified" priority="5" numLanes="1" speed="13.89" disallow="tram rail_urban rail rail_electric ship" oneway="0"/>
    <type id="highway.unsurfaced" priority="1" numLanes="1" speed="8.33" disallow="tram rail_urban rail rail_electric ship" oneway="0"/>
    <type id="railway.light_rail" priority="15" numLanes="1" speed="27.78" allow="rail_urban" oneway="1"/>
    <type id="railway.preserved" priority="15" numLanes="1" speed="27.78" allow="rail" oneway="1"/>
    <type id="railway.rail" priority="15" numLanes="1" speed="83.33" allow="rail rail_electric" oneway="1"/>
    <type id="railway.subway" priority="15" numLanes="1" speed="27.78" allow="rail_urban" oneway="1"/>
    <type id="railway.tram" priority="15" numLanes="1" speed="13.89" allow="tram" oneway="1"/>

    <edge id=":1332860726_0" function="internal">
        <lane id=":1332860726_0_0" index="0" disallow="tram rail_urban rail rail_electric ship" speed="6.45" length="9.03" shape="1305.66,4505.90 1303.64,4507.36 1302.60,4509.10 1302.52,4511.13 1303.41,4513.45"/>
    </edge>
    <edge id=":1332860726_1" function="internal">
        <lane id=":1332860726_1_0" index="0" disallow="tram rail_urban rail rail_electric ship" speed="3.65" length="4.67" shape="1305.66,4505.90 1304.23,4505.75 1303.50,4505.23 1303.48,4504.33 1304.17,4503.07"/>
    </edge>
    <edge id=":1332860726_2" function="internal">
        <lane id=":1332860726_2_0" index="0" disallow="tram rail_urban rail rail_electric ship" speed="6.60" length="9.16" shape="1296.41,4500.85 1297.91,4502.82 1299.70,4503.84 1301.79,4503.92 1304.17,4503.07"/>
    </edge>
    <edge id=":1332860726_3" function="internal">
        <lane id=":1332860726_3_0" index="0" disallow="tram rail_urban rail rail_electric ship" speed="27.78" length="14.42" shape="1296.41,4500.85 1303.41,4513.45"/>
        <lane id=":1332860726_3_1" index="1" disallow="tram rail_urban rail rail_electric ship" speed="27.78" length="14.42" shape="1293.61,4502.40 1300.62,4515.01"/>
    </edge>
    <edge id=":1332860731_0" function="internal">
        <lane id=":1332860731_0_0" index="0" disallow="tram rail_urban rail rail_electric ship" speed="7.25" length="11.33" shape="1378.21,4475.49 1376.42,4473.14 1374.21,4471.94 1371.59,4471.90 1368.55,4473.02"/>
    </edge>
    <edge id=":1332860731_1" function="internal">
        <lane id=":1332860731_1_0" index="0" disallow="tram rail_urban rail rail_electric ship" speed="13.89" length="15.49" shape="1378.21,4475.49 1370.85,4461.87"/>
    </edge>
    <edge id=":1332860731_2" function="internal">
        <lane id=":1332860731_2_0" index="0" disallow="tram rail_urban rail rail_electric ship" speed="8.22" length="6.56" shape="1378.21,4475.49 1376.65,4471.44 1376.64,4469.22"/>
    </edge>
    <edge id=":1332860731_3" function="internal">
        <lane id=":1332860731_3_0" index="0" disallow="tram rail_urban rail rail_electric ship" speed="3.65" length="2.34" shape="1378.21,4475.49 1378.34,4474.06 1378.86,4473.33"/>
    </edge>
    <edge id=":1332860731_16" function="internal">
        <lane id=":1332860731_16_0" index="0" disallow="tram rail_urban rail rail_electric ship" speed="8.22" length="8.49" shape="1376.64,4469.22 1376.64,4467.95 1378.19,4465.02 1381.29,4462.66"/>
    </edge>
    <edge id=":1332860731_17" function="internal">
        <lane id=":1332860731_17_0" index="0" disallow="tram rail_urban rail rail_electric ship" speed="3.65" length="2.34" shape="1378.86,4473.33 1379.75,4473.30 1381.03,4473.97"/>
    </edge>
    <edge id=":1332860731_4" function="internal">
        <lane id=":1332860731_4_0" index="0" disallow="tram rail_urban rail rail_electric ship" speed="6.77" length="9.88" shape="1382.81,4465.48 1380.84,4467.00 1379.89,4468.93 1379.95,4471.25 1381.03,4473.97"/>
    </edge>
    <edge id=":1332860731_5" function="internal">
        <lane id=":1332860731_5_0" index="0" disallow="tram rail_urban rail rail_electric ship" speed="13.89" length="16.13" shape="1382.81,4465.48 1368.55,4473.02"/>
    </edge>
    <edge id=":1332860731_6" function="internal">
        <lane id=":1332860731_6_0" index="0" disallow="tram rail_urban rail rail_electric ship" speed="8.02" length="5.99" shape="1382.81,4465.48 1379.15,4466.81 1377.05,4466.71"/>
    </edge>
    <edge id=":1332860731_7" function="internal">
        <lane id=":1332860731_7_0" index="0" disallow="tram rail_urban rail rail_electric ship" speed="3.65" length="2.34" shape="1382.81,4465.48 1381.37,4465.34 1380.64,4464.83"/>
    </edge>
    <edge id=":1332860731_18" function="internal">
        <lane id=":1332860731_18_0" index="0" disallow="tram rail_urban rail rail_electric ship" speed="8.02" length="8.24" shape="1377.05,4466.71 1375.94,4466.66 1373.17,4465.01 1370.85,4461.87"/>
    </edge>
    <edge id=":1332860731_19" function="internal">
        <lane id=":1332860731_19_0" index="0" disallow="tram rail_urban rail rail_electric ship" speed="3.65" length="2.34" shape="1380.64,4464.83 1380.61,4463.93 1381.29,4462.66"/>
    </edge>
    <edge id=":1332860731_8" function="internal">
        <lane id=":1332860731_8_0" index="0" disallow="tram rail_urban rail rail_electric ship" speed="6.53" length="9.08" shape="1373.67,4460.35 1375.15,4462.35 1376.91,4463.41 1378.96,4463.51 1381.29,4462.66"/>
    </edge>
    <edge id=":1332860731_9" function="internal">
        <lane id=":1332860731_9_0" index="0" disallow="tram rail_urban rail rail_electric ship" speed="13.89" length="15.49" shape="1373.67,4460.35 1381.03,4473.97"/>
    </edge>
    <edge id=":1332860731_10" function="internal">
        <lane id=":1332860731_10_0" index="0" disallow="tram rail_urban rail rail_electric ship" speed="8.32" length="5.54" shape="1373.67,4460.35 1374.93,4464.06 1374.72,4465.66"/>
    </edge>
    <edge id=":1332860731_11" function="internal">
        <lane id=":1332860731_11_0" index="0" disallow="tram rail_urban rail rail_electric ship" speed="3.65" length="2.34" shape="1373.67,4460.35 1373.53,4461.78 1373.02,4462.51"/>
    </edge>
    <edge id=":1332860731_20" function="internal">
        <lane id=":1332860731_20_0" index="0" disallow="tram rail_urban rail rail_electric ship" speed="8.32" length="10.07" shape="1374.72,4465.66 1374.49,4467.42 1372.37,4470.40 1368.55,4473.02"/>
    </edge>
    <edge id=":1332860731_21" function="internal">
        <lane id=":1332860731_21_0" index="0" disallow="tram rail_urban rail rail_electric ship" speed="3.65" length="2.34" shape="1373.02,4462.51 1372.12,4462.54 1370.85,4461.87"/>
    </edge>
    <edge id=":1332860731_12" function="internal">
        <lane id=":1332860731_12_0" index="0" disallow="tram rail_urban rail rail_electric ship" speed="6.90" length="10.40" shape="1367.06,4470.19 1369.72,4468.40 1371.24,4466.42 1371.61,4464.24 1370.85,4461.87"/>
    </edge>
    <edge id=":1332860731_13" function="internal">
        <lane id=":1332860731_13_0" index="0" disallow="tram rail_urban rail rail_electric ship" speed="13.89" length="16.10" shape="1367.06,4470.19 1381.29,4462.66"/>
    </edge>
    <edge id=":1332860731_14" function="internal">
        <lane id=":1332860731_14_0" index="0" disallow="tram rail_urban rail rail_electric ship" speed="8.61" length="6.60" shape="1367.06,4470.19 1371.42,4468.60 1373.38,4468.66"/>
    </edge>
    <edge id=":1332860731_15" function="internal">
        <lane id=":1332860731_15_0" index="0" disallow="tram rail_urban rail rail_electric ship" speed="3.65" length="2.34" shape="1367.06,4470.19 1368.50,4470.34 1369.22,4470.86"/>
    </edge>
    <edge id=":1332860731_22" function="internal">
        <lane id=":1332860731_22_0" index="0" disallow="tram rail_urban rail rail_electric ship" speed="8.61" length="9.85" shape="1373.38,4468.66 1375.20,4468.70 1378.40,4470.49 1381.03,4473.97"/>
    </edge>
    <edge id=":1332860731_23" function="internal">
        <lane id=":1332860731_23_0" index="0" disallow="tram rail_urban rail rail_electric ship" speed="3.65" length="2.34" shape="1369.22,4470.86 1369.24,4471.76 1368.55,4473.02"/>
    </edge>
    <edge id=":1504153626_0" function="internal">
        <lane id=":1504153626_0_0" index="0" disallow="tram rail_urban rail rail_electric ship" speed="6.53" length="9.12" shape="1622.51,4155.51 1621.02,4153.49 1619.25,4152.44 1617.19,4152.34 1614.86,4153.21"/>
    </edge>
    <edge id=":1504153626_1" function="internal">
        <lane id=":1504153626_1_0" index="0" disallow="tram rail_urban rail rail_electric ship" speed="27.78" length="14.49" shape="1622.51,4155.51 1615.54,4142.81"/>
        <lane id=":1504153626_1_1" index="1" disallow="tram rail_urban rail rail_electric ship" speed="27.78" length="14.49" shape="1625.32,4153.97 1618.35,4141.26"/>
    </edge>
    <edge id=":1504153626_3" function="internal">
        <lane id=":1504153626_3_0" index="0" disallow="tram rail_urban rail rail_electric ship" speed="8.67" length="5.26" shape="1625.32,4153.97 1624.13,4150.20 1624.37,4148.92"/>
    </edge>
    <edge id=":1504153626_4" function="internal">
        <lane id=":1504153626_4_0" index="0" disallow="tram rail_urban rail rail_electric ship" speed="3.65" length="2.34" shape="1625.32,4153.97 1625.44,4152.53 1625.95,4151.80"/>
    </edge>
    <edge id=":1504153626_18" function="internal">
        <lane id=":1504153626_18_0" index="0" disallow="tram rail_urban rail rail_electric ship" speed="8.67" length="11.65" shape="1624.37,4148.92 1624.80,4146.69 1627.31,4143.46 1631.68,4140.49"/>
    </edge>
    <edge id=":1504153626_19" function="internal">
        <lane id=":1504153626_19_0" index="0" disallow="tram rail_urban rail rail_electric ship" speed="3.65" length="2.34" shape="1625.95,4151.80 1626.85,4151.76 1628.13,4152.43"/>
    </edge>
    <edge id=":1504153626_5" function="internal">
        <lane id=":1504153626_5_0" index="0" disallow="tram rail_urban rail rail_electric ship" speed="6.50" length="9.03" shape="1633.19,4143.31 1631.20,4144.78 1630.16,4146.53 1630.07,4148.57 1630.93,4150.89"/>
    </edge>
    <edge id=":1504153626_6" function="internal">
        <lane id=":1504153626_6_0" index="0" disallow="tram rail_urban rail rail_electric ship" speed="13.89" length="20.84" shape="1633.19,4143.31 1614.86,4153.21"/>
    </edge>
    <edge id=":1504153626_7" function="internal">
        <lane id=":1504153626_7_0" index="0" disallow="tram rail_urban rail rail_electric ship" speed="8.73" length="7.84" shape="1633.19,4143.31 1628.29,4145.31 1625.76,4145.51"/>
    </edge>
    <edge id=":1504153626_8" function="internal">
        <lane id=":1504153626_8_0" index="0" disallow="tram rail_urban rail rail_electric ship" speed="3.65" length="2.34" shape="1633.19,4143.31 1631.76,4143.17 1631.03,4142.66"/>
    </edge>
    <edge id=":1504153626_20" function="internal">
        <lane id=":1504153626_20_0" index="0" disallow="tram rail_urban rail rail_electric ship" speed="8.73" length="9.09" shape="1625.76,4145.51 1624.18,4145.63 1620.87,4144.28 1618.35,4141.26"/>
    </edge>
    <edge id=":1504153626_21" function="internal">
        <lane id=":1504153626_21_0" index="0" disallow="tram rail_urban rail rail_electric ship" speed="3.65" length="2.34" shape="1631.03,4142.66 1631.00,4141.76 1631.68,4140.49"/>
    </edge>
    <edge id=":1504153626_9" function="internal">
        <lane id=":1504153626_9_0" index="0" disallow="tram rail_urban rail rail_electric ship" speed="6.58" length="9.18" shape="1623.95,4138.18 1625.47,4140.19 1627.26,4141.25 1629.33,4141.35 1631.68,4140.49"/>
    </edge>
    <edge id=":1504153626_10" function="internal">
        <lane id=":1504153626_10_0" index="0" disallow="tram rail_urban rail rail_electric ship" speed="27.78" length="14.50" shape="1623.95,4138.18 1630.93,4150.89"/>
        <lane id=":1504153626_10_1" index="1" disallow="tram rail_urban rail rail_electric ship" speed="27.78" length="14.50" shape="1621.15,4139.72 1628.13,4152.43"/>
    </edge>
    <edge id=":1504153626_12" function="internal">
        <lane id=":1504153626_12_0" index="0" disallow="tram rail_urban rail rail_electric ship" speed="8.66" length="5.29" shape="1621.15,4139.72 1622.36,4143.46 1622.11,4144.79"/>
    </edge>
    <edge id=":1504153626_13" function="internal">
        <lane id=":1504153626_13_0" index="0" disallow="tram rail_urban rail rail_electric ship" speed="3.65" length="2.34" shape="1621.15,4139.72 1621.03,4141.16 1620.52,4141.89"/>
    </edge>
    <edge id=":1504153626_22" function="internal">
        <lane id=":1504153626_22_0" index="0" disallow="tram rail_urban rail rail_electric ship" speed="8.66" length="11.59" shape="1622.11,4144.79 1621.71,4146.96 1619.21,4150.21 1614.86,4153.21"/>
    </edge>
    <edge id=":1504153626_23" function="internal">
        <lane id=":1504153626_23_0" index="0" disallow="tram rail_urban rail rail_electric ship" speed="3.65" length="2.34" shape="1620.52,4141.89 1619.63,4141.93 1618.35,4141.26"/>
    </edge>
    <edge id=":1504153626_14" function="internal">
        <lane id=":1504153626_14_0" index="0" disallow="tram rail_urban rail rail_electric ship" speed="6.50" length="9.03" shape="1613.33,4150.40 1615.31,4148.92 1616.34,4147.16 1616.42,4145.12 1615.54,4142.81"/>
    </edge>
    <edge id=":1504153626_15" function="internal">
        <lane id=":1504153626_15_0" index="0" disallow="tram rail_urban rail rail_electric ship" speed="13.89" length="20.86" shape="1613.33,4150.40 1631.68,4140.49"/>
    </edge>
    <edge id=":1504153626_16" function="internal">
        <lane id=":1504153626_16_0" index="0" disallow="tram rail_urban rail rail_electric ship" speed="8.68" length="7.96" shape="1613.33,4150.40 1618.22,4148.37 1620.87,4148.15"/>
    </edge>
    <edge id=":1504153626_17" function="internal">
        <lane id=":1504153626_17_0" index="0" disallow="tram rail_urban rail rail_electric ship" speed="3.65" length="2.34" shape="1613.33,4150.40 1614.76,4150.53 1615.50,4151.04"/>
    </edge>
    <edge id=":1504153626_24" function="internal">
        <lane id=":1504153626_24_0" index="0" disallow="tram rail_urban rail rail_electric ship" speed="8.68" length="8.97" shape="1620.87,4148.15 1622.32,4148.03 1625.62,4149.38 1628.13,4152.43"/>
    </edge>
    <edge id=":1504153626_25" function="internal">
        <lane id=":1504153626_25_0" index="0" disallow="tram rail_urban rail rail_electric ship" speed="3.65" length="2.34" shape="1615.50,4151.04 1615.53,4151.94 1614.86,4153.21"/>
    </edge>
    <edge id=":1506599377_0" function="internal">
        <lane id=":1506599377_0_0" index="0" disallow="tram rail_urban rail rail_electric ship" speed="6.37" length="8.64" shape="1513.18,4483.81 1511.37,4485.17 1510.46,4486.85 1510.44,4488.84 1511.32,4491.15"/>
    </edge>
    <edge id=":1506599377_1" function="internal">
        <lane id=":1506599377_1_0" index="0" disallow="tram rail_urban rail rail_electric ship" speed="27.78" length="11.18" shape="1505.99,4481.32 1511.32,4491.15"/>
        <lane id=":1506599377_1_1" index="1" disallow="tram rail_urban rail rail_electric ship" speed="27.78" length="11.18" shape="1503.18,4482.85 1508.51,4492.67"/>
    </edge>
    <edge id=":1695379692_0" function="internal">
        <lane id=":1695379692_0_0" index="0" disallow="tram rail_urban rail rail_electric ship" speed="13.89" length="5.01" shape="1898.07,4277.50 1893.68,4279.91"/>
    </edge>
    <edge id=":1705982037_0" function="internal">
        <lane id=":1705982037_0_0" index="0" disallow="tram rail_urban rail rail_electric ship" speed="27.78" length="6.69" shape="1391.60,4923.33 1389.79,4922.26 1388.59,4921.44 1387.50,4920.49 1386.01,4919.00"/>
        <lane id=":1705982037_0_1" index="1" disallow="tram rail_urban rail rail_electric ship" speed="27.78" length="6.69" shape="1393.21,4920.56 1391.61,4919.62 1390.56,4918.90 1389.60,4918.06 1388.29,4916.75"/>
    </edge>
    <edge id=":1705982139_0" function="internal">
        <lane id=":1705982139_0_0" index="0" disallow="tram rail_urban rail rail_electric ship" speed="27.78" length="16.39" shape="1382.89,4916.00 1379.03,4912.92 1376.25,4910.93 1373.66,4908.77 1370.34,4905.14"/>
        <lane id=":1705982139_0_1" index="1" disallow="tram rail_urban rail rail_electric ship" speed="27.78" length="16.39" shape="1384.98,4913.58 1381.24,4910.60 1378.54,4908.69 1376.02,4906.60 1372.80,4903.10"/>
    </edge>
    <edge id=":1705982139_2" function="internal">
        <lane id=":1705982139_2_0" index="0" disallow="tram rail_urban rail rail_electric ship" speed="25.00" length="15.39" shape="1387.23,4910.58 1384.27,4908.78 1381.50,4907.01 1378.61,4904.64 1375.27,4901.05"/>
    </edge>
    <edge id=":1775693152_0" function="internal">
        <lane id=":1775693152_0_0" index="0" disallow="tram rail_urban rail rail_electric ship" speed="13.89" length="5.00" shape="1932.58,4258.40 1928.20,4260.82"/>
    </edge>
    <edge id=":2340960702_0" function="internal">
        <lane id=":2340960702_0_0" index="0" disallow="tram rail_urban rail rail_electric ship" speed="13.89" length="4.99" shape="1426.55,4255.04 1422.16,4257.41"/>
    </edge>
    <edge id=":2340960702_1" function="internal">
        <lane id=":2340960702_1_0" index="0" disallow="tram rail_urban rail rail_electric ship" speed="3.65" length="2.34" shape="1426.55,4255.04 1425.11,4254.90 1424.38,4254.39"/>
    </edge>
    <edge id=":2340960702_4" function="internal">
        <lane id=":2340960702_4_0" index="0" disallow="tram rail_urban rail rail_electric ship" speed="3.65" length="2.34" shape="1424.38,4254.39 1424.35,4253.49 1425.03,4252.22"/>
    </edge>
    <edge id=":2340960702_2" function="internal">
        <lane id=":2340960702_2_0" index="0" disallow="tram rail_urban rail rail_electric ship" speed="13.89" length="5.00" shape="1420.63,4254.60 1425.03,4252.22"/>
    </edge>
    <edge id=":2340960702_3" function="internal">
        <lane id=":2340960702_3_0" index="0" disallow="tram rail_urban rail rail_electric ship" speed="3.65" length="2.34" shape="1420.63,4254.60 1422.07,4254.73 1422.80,4255.24"/>
    </edge>
    <edge id=":2340960702_5" function="internal">
        <lane id=":2340960702_5_0" index="0" disallow="tram rail_urban rail rail_electric ship" speed="3.65" length="2.34" shape="1422.80,4255.24 1422.83,4256.13 1422.16,4257.41"/>
    </edge>
    <edge id=":254342293_0" function="internal">
        <lane id=":254342293_0_0" index="0" allow="private emergency authority army vip passenger hov taxi bus coach delivery truck trailer motorcycle evehicle custom1 custom2" speed="33.33" length="8.16" shape="1715.93,5606.86 1714.72,5604.75 1713.86,5603.34 1712.94,5601.96 1711.54,5599.99"/>
    </edge>
    <edge id=":254342293_1" function="internal">
        <lane id=":254342293_1_0" index="0" allow="private emergency authority army vip passenger hov taxi bus coach delivery truck trailer motorcycle evehicle custom1 custom2" speed="44.44" length="8.25" shape="1718.71,5605.27 1714.60,5598.17"/>
        <lane id=":254342293_1_1" index="1" allow="private emergency authority army vip passenger hov taxi bus coach delivery truck trailer motorcycle evehicle custom1 custom2" speed="44.44" length="8.25" shape="1721.49,5603.69 1717.36,5596.55"/>
        <lane id=":254342293_1_2" index="2" allow="private emergency authority army vip passenger hov taxi bus coach delivery truck trailer motorcycle evehicle custom1 custom2" speed="44.44" length="8.25" shape="1724.27,5602.11 1720.12,5594.93"/>
    </edge>
    <edge id=":3269867945_0" function="internal">
        <lane id=":3269867945_0_0" index="0" disallow="tram rail_urban rail rail_electric ship" speed="22.22" length="5.33" shape="1395.24,4915.25 1393.79,4914.63 1392.82,4914.15 1391.89,4913.59 1390.56,4912.73"/>
    </edge>
    <edge id=":3347295528_0" function="internal">
        <lane id=":3347295528_0_0" index="0" disallow="tram rail_urban rail rail_electric ship" speed="3.65" length="4.67" shape="1514.26,3949.09 1514.40,3947.66 1514.92,3946.93 1515.81,3946.90 1517.08,3947.58"/>
    </edge>
    <edge id=":3551738975_0" function="internal">
        <lane id=":3551738975_0_0" index="0" disallow="tram rail_urban rail rail_electric ship" speed="3.65" length="4.67" shape="2095.54,4632.83 2096.97,4632.97 2097.70,4633.48 2097.73,4634.37 2097.06,4635.65"/>
    </edge>
    <edge id=":3570003194_0" function="internal">
        <lane id=":3570003194_0_0" index="0" disallow="tram rail_urban rail rail_electric ship" speed="7.74" length="4.72" shape="1401.15,5109.99 1399.07,5106.37 1399.03,5105.82"/>
    </edge>
    <edge id=":3570003194_1" function="internal">
        <lane id=":3570003194_1_0" index="0" disallow="tram rail_urban rail rail_electric ship" speed="6.18" length="4.41" shape="1403.67,5108.02 1402.41,5105.81 1402.25,5103.95"/>
    </edge>
    <edge id=":3570003194_4" function="internal">
        <lane id=":3570003194_4_0" index="0" disallow="tram rail_urban rail rail_electric ship" speed="7.74" length="10.14" shape="1399.03,5105.82 1398.81,5103.12 1400.34,5100.25 1403.68,5097.75"/>
    </edge>
    <edge id=":3570003194_5" function="internal">
        <lane id=":3570003194_5_0" index="0" disallow="tram rail_urban rail rail_electric ship" speed="6.18" length="4.64" shape="1402.25,5103.95 1402.24,5103.83 1403.18,5102.08 1405.21,5100.56"/>
    </edge>
    <edge id=":3570003194_2" function="internal">
        <lane id=":3570003194_2_0" index="0" disallow="tram rail_urban rail rail_electric ship" speed="27.78" length="10.49" shape="1394.50,5103.05 1397.13,5101.33 1398.99,5100.24 1400.90,5099.23 1403.68,5097.75"/>
        <lane id=":3570003194_2_1" index="1" disallow="tram rail_urban rail rail_electric ship" speed="27.78" length="10.49" shape="1396.24,5105.73 1398.82,5104.05 1400.63,5102.99 1402.50,5102.01 1405.21,5100.56"/>
    </edge>
    <edge id=":3579426479_0" function="internal">
        <lane id=":3579426479_0_0" index="0" disallow="tram rail_urban rail rail_electric ship" speed="13.89" length="5.14" shape="1563.37,4456.51 1558.83,4458.92"/>
    </edge>
    <edge id=":3579426492_0" function="internal">
        <lane id=":3579426492_0_0" index="0" disallow="tram rail_urban rail rail_electric ship" speed="27.78" length="5.41" shape="1774.97,4436.20 1772.39,4431.46"/>
        <lane id=":3579426492_0_1" index="1" disallow="tram rail_urban rail rail_electric ship" speed="27.78" length="5.41" shape="1777.79,4434.68 1775.19,4429.91"/>
    </edge>
    <edge id=":3579426492_2" function="internal">
        <lane id=":3579426492_2_0" index="0" disallow="tram rail_urban rail rail_electric ship" speed="3.65" length="2.34" shape="1777.79,4434.68 1777.93,4433.25 1778.44,4432.51"/>
    </edge>
    <edge id=":3579426492_6" function="internal">
        <lane id=":3579426492_6_0" index="0" disallow="tram rail_urban rail rail_electric ship" speed="3.65" length="2.34" shape="1778.44,4432.51 1779.33,4432.49 1780.61,4433.17"/>
    </edge>
    <edge id=":3579426492_3" function="internal">
        <lane id=":3579426492_3_0" index="0" disallow="tram rail_urban rail rail_electric ship" speed="27.78" length="5.48" shape="1780.79,4426.82 1783.43,4431.65"/>
        <lane id=":3579426492_3_1" index="1" disallow="tram rail_urban rail rail_electric ship" speed="27.78" length="5.48" shape="1777.99,4428.37 1780.61,4433.17"/>
    </edge>
    <edge id=":3579426492_5" function="internal">
        <lane id=":3579426492_5_0" index="0" disallow="tram rail_urban rail rail_electric ship" speed="3.65" length="2.34" shape="1777.99,4428.37 1777.87,4429.80 1777.37,4430.54"/>
    </edge>
    <edge id=":3579426492_7" function="internal">
        <lane id=":3579426492_7_0" index="0" disallow="tram rail_urban rail rail_electric ship" speed="3.65" length="2.34" shape="1777.37,4430.54 1776.47,4430.58 1775.19,4429.91"/>
    </edge>
    <edge id=":3579426702_0" function="internal">
        <lane id=":3579426702_0_0" index="0" disallow="tram rail_urban rail rail_electric ship" speed="13.89" length="5.04" shape="1825.21,4317.04 1820.74,4319.37"/>
    </edge>
    <edge id=":3579426844_0" function="internal">
        <lane id=":3579426844_0_0" index="0" disallow="tram rail_urban rail rail_electric ship" speed="13.89" length="5.00" shape="1775.87,4539.71 1771.46,4542.08"/>
    </edge>
    <edge id=":3579426844_1" function="internal">
        <lane id=":3579426844_1_0" index="0" disallow="tram rail_urban rail rail_electric ship" speed="3.65" length="2.34" shape="1775.87,4539.71 1774.43,4539.58 1773.70,4539.06"/>
    </edge>
    <edge id=":3579426844_4" function="internal">
        <lane id=":3579426844_4_0" index="0" disallow="tram rail_urban rail rail_electric ship" speed="3.65" length="2.34" shape="1773.70,4539.06 1773.68,4538.17 1774.36,4536.89"/>
    </edge>
    <edge id=":3579426844_2" function="internal">
        <lane id=":3579426844_2_0" index="0" disallow="tram rail_urban rail rail_electric ship" speed="13.89" length="5.00" shape="1769.95,4539.26 1774.36,4536.89"/>
    </edge>
    <edge id=":3579426844_3" function="internal">