<?xml version="1.0" encoding="UTF-8"?>

<!-- generated on Fri Mar 13 17:31:23 2020 by Eclipse SUMO netconvert Version 1.2.0
<configuration xmlns:xsi="http://www.w3.org/2001/XMLSchema-instance" xsi:noNamespaceSchemaLocation="http://sumo.dlr.de/xsd/netconvertConfiguration.xsd">

    <input>
        <osm-files value="hollywood_highway_map.osm"/>
    </input>

    <output>
        <output-file value="hollywood_highway.net.xml"/>
    </output>

    <projection>
        <proj.utm value="true"/>
    </projection>

</configuration>
-->

<net version="1.1" junctionCornerDetail="5" limitTurnSpeed="5.50" xmlns:xsi="http://www.w3.org/2001/XMLSchema-instance" xsi:noNamespaceSchemaLocation="http://sumo.dlr.de/xsd/net_file.xsd">

    <location netOffset="-372980.45,-3769916.60" convBoundary="0.00,0.00,7868.58,12037.28" origBoundary="-118.378162,34.063208,-118.291312,34.170814" projParameter="+proj=utm +zone=11 +ellps=WGS84 +datum=WGS84 +units=m +no_defs"/>

    <type id="highway.bridleway" priority="1" numLanes="1" speed="2.78" allow="pedestrian" oneway="1" width="2.00"/>
    <type id="highway.bus_guideway" priority="1" numLanes="1" speed="27.78" allow="bus" oneway="1"/>
    <type id="highway.cycleway" priority="1" numLanes="1" speed="8.33" allow="bicycle" oneway="0" width="1.00"/>
    <type id="highway.footway" priority="1" numLanes="1" speed="2.78" allow="pedestrian" oneway="1" width="2.00"/>
    <type id="highway.ford" priority="1" numLanes="1" speed="2.78" allow="army" oneway="0"/>
    <type id="highway.living_street" priority="2" numLanes="1" speed="2.78" disallow="tram rail_urban rail rail_electric ship" oneway="0"/>
    <type id="highway.motorway" priority="14" numLanes="2" speed="39.44" allow="private emergency authority army vip passenger hov taxi bus coach delivery truck trailer motorcycle evehicle custom1 custom2" oneway="1"/>
    <type id="highway.motorway_link" priority="9" numLanes="1" speed="22.22" allow="private emergency authority army vip passenger hov taxi bus coach delivery truck trailer motorcycle evehicle custom1 custom2" oneway="1"/>
    <type id="highway.path" priority="1" numLanes="1" speed="2.78" allow="bicycle pedestrian" oneway="1" width="2.00"/>
    <type id="highway.pedestrian" priority="1" numLanes="1" speed="2.78" allow="pedestrian" oneway="1" width="2.00"/>
    <type id="highway.primary" priority="12" numLanes="2" speed="27.78" disallow="tram rail_urban rail rail_electric ship" oneway="0"/>
    <type id="highway.primary_link" priority="7" numLanes="1" speed="22.22" disallow="tram rail_urban rail rail_electric ship" oneway="0"/>
    <type id="highway.raceway" priority="15" numLanes="2" speed="83.33" allow="vip" oneway="0"/>
    <type id="highway.residential" priority="3" numLanes="1" speed="13.89" disallow="tram rail_urban rail rail_electric ship" oneway="0"/>
    <type id="highway.secondary" priority="11" numLanes="2" speed="27.78" disallow="tram rail_urban rail rail_electric ship" oneway="0"/>
    <type id="highway.secondary_link" priority="6" numLanes="1" speed="22.22" disallow="tram rail_urban rail rail_electric ship" oneway="0"/>
    <type id="highway.service" priority="1" numLanes="1" speed="5.56" allow="delivery bicycle pedestrian" oneway="0"/>
    <type id="highway.stairs" priority="1" numLanes="1" speed="1.39" allow="pedestrian" oneway="1" width="2.00"/>
    <type id="highway.step" priority="1" numLanes="1" speed="1.39" allow="pedestrian" oneway="1" width="2.00"/>
    <type id="highway.steps" priority="1" numLanes="1" speed="1.39" allow="pedestrian" oneway="1" width="2.00"/>
    <type id="highway.tertiary" priority="10" numLanes="1" speed="22.22" disallow="tram rail_urban rail rail_electric ship" oneway="0"/>
    <type id="highway.tertiary_link" priority="5" numLanes="1" speed="22.22" disallow="tram rail_urban rail rail_electric ship" oneway="0"/>
    <type id="highway.track" priority="1" numLanes="1" speed="5.56" disallow="tram rail_urban rail rail_electric ship" oneway="0"/>
    <type id="highway.trunk" priority="13" numLanes="2" speed="27.78" disallow="tram rail_urban rail rail_electric bicycle pedestrian ship" oneway="0"/>
    <type id="highway.trunk_link" priority="8" numLanes="1" speed="22.22" disallow="tram rail_urban rail rail_electric bicycle pedestrian ship" oneway="0"/>
    <type id="highway.unclassified" priority="4" numLanes="1" speed="13.89" disallow="tram rail_urban rail rail_electric ship" oneway="0"/>
    <type id="highway.unsurfaced" priority="1" numLanes="1" speed="8.33" disallow="tram rail_urban rail rail_electric ship" oneway="0"/>
    <type id="railway.light_rail" priority="19" numLanes="1" speed="27.78" allow="rail_urban" oneway="1"/>
    <type id="railway.preserved" priority="16" numLanes="1" speed="27.78" allow="rail" oneway="1"/>
    <type id="railway.rail" priority="20" numLanes="1" speed="83.33" allow="rail rail_electric" oneway="1"/>
    <type id="railway.subway" priority="18" numLanes="1" speed="27.78" allow="rail_urban" oneway="1"/>
    <type id="railway.tram" priority="17" numLanes="1" speed="13.89" allow="tram" oneway="1"/>

    <edge id=":122856458_0" function="internal">
        <lane id=":122856458_0_0" index="0" disallow="tram rail_urban rail rail_electric ship" speed="10.00" length="12.21" shape="966.63,8255.74 964.48,8254.57 961.80,8254.08 958.59,8254.26 954.86,8255.12"/>
    </edge>
    <edge id=":122856458_1" function="internal">
        <lane id=":122856458_1_0" index="0" disallow="tram rail_urban rail rail_electric ship" speed="13.89" length="15.05" shape="966.63,8255.74 963.76,8253.32 961.00,8250.75 958.34,8248.08 955.74,8245.36"/>
    </edge>
    <edge id=":122856458_2" function="internal">
        <lane id=":122856458_2_0" index="0" disallow="tram rail_urban rail rail_electric ship" speed="3.65" length="2.34" shape="966.63,8255.74 966.19,8254.37 966.38,8253.49"/>
    </edge>
    <edge id=":122856458_9" function="internal">
        <lane id=":122856458_9_0" index="0" disallow="tram rail_urban rail rail_electric ship" speed="3.65" length="2.34" shape="966.38,8253.49 967.19,8253.12 968.63,8253.24"/>
    </edge>
    <edge id=":122856458_3" function="internal">
        <lane id=":122856458_3_0" index="0" disallow="tram rail_urban rail rail_electric ship" speed="13.89" length="14.60" shape="958.08,8243.17 960.62,8245.84 963.17,8248.40 965.81,8250.86 968.63,8253.24"/>
    </edge>
    <edge id=":122856458_4" function="internal">
        <lane id=":122856458_4_0" index="0" disallow="tram rail_urban rail rail_electric ship" speed="7.44" length="6.29" shape="958.08,8243.17 960.89,8247.13 961.07,8248.55"/>
    </edge>
    <edge id=":122856458_5" function="internal">
        <lane id=":122856458_5_0" index="0" disallow="tram rail_urban rail rail_electric ship" speed="3.65" length="2.34" shape="958.08,8243.17 958.31,8244.59 958.00,8245.43"/>
    </edge>
    <edge id=":122856458_10" function="internal">
        <lane id=":122856458_10_0" index="0" disallow="tram rail_urban rail rail_electric ship" speed="7.44" length="10.11" shape="961.07,8248.55 961.30,8250.44 959.29,8253.11 954.86,8255.12"/>
    </edge>
    <edge id=":122856458_11" function="internal">
        <lane id=":122856458_11_0" index="0" disallow="tram rail_urban rail rail_electric ship" speed="3.65" length="2.34" shape="958.00,8245.43 957.15,8245.69 955.74,8245.36"/>
    </edge>
    <edge id=":122856458_6" function="internal">
        <lane id=":122856458_6_0" index="0" disallow="tram rail_urban rail rail_electric ship" speed="5.74" length="9.18" shape="953.94,8252.06 956.42,8250.93 957.55,8249.44 957.32,8247.58 955.74,8245.36"/>
    </edge>
    <edge id=":122856458_7" function="internal">
        <lane id=":122856458_7_0" index="0" disallow="tram rail_urban rail rail_electric ship" speed="11.14" length="15.29" shape="953.94,8252.06 958.46,8251.05 962.41,8250.91 965.80,8251.64 968.63,8253.24"/>
    </edge>
    <edge id=":122856458_8" function="internal">
        <lane id=":122856458_8_0" index="0" disallow="tram rail_urban rail rail_electric ship" speed="3.65" length="4.67" shape="953.94,8252.06 955.32,8252.48 955.94,8253.13 955.78,8254.01 954.86,8255.12"/>
    </edge>
    <edge id=":122856464_0" function="internal">
        <lane id=":122856464_0_0" index="0" disallow="tram rail_urban rail rail_electric ship" speed="3.65" length="4.67" shape="811.02,8234.68 810.47,8233.35 810.59,8232.46 811.37,8232.02 812.82,8232.04"/>
    </edge>
    <edge id=":123069077_0" function="internal">
        <lane id=":123069077_0_0" index="0" disallow="tram rail_urban rail rail_electric ship" speed="7.51" length="9.30" shape="1055.72,8217.44 1053.47,8216.94 1051.35,8217.20 1049.35,8218.24 1047.47,8220.04"/>
    </edge>
    <edge id=":123069077_1" function="internal">
        <lane id=":123069077_1_0" index="0" disallow="tram rail_urban rail rail_electric ship" speed="13.89" length="13.39" shape="1055.72,8217.44 1052.51,8216.04 1049.73,8214.47 1047.14,8212.59 1044.49,8210.30"/>
    </edge>
    <edge id=":123069077_2" function="internal">
        <lane id=":123069077_2_0" index="0" disallow="tram rail_urban rail rail_electric ship" speed="3.65" length="4.67" shape="1055.72,8217.44 1054.88,8216.26 1054.80,8215.37 1055.46,8214.77 1056.86,8214.45"/>
    </edge>
    <edge id=":123069077_3" function="internal">
        <lane id=":123069077_3_0" index="0" disallow="tram rail_urban rail rail_electric ship" speed="13.89" length="12.19" shape="1046.66,8207.95 1049.15,8210.14 1051.39,8211.80 1053.82,8213.16 1056.86,8214.45"/>
    </edge>
    <edge id=":123069077_4" function="internal">
        <lane id=":123069077_4_0" index="0" disallow="tram rail_urban rail rail_electric ship" speed="8.01" length="13.66" shape="1046.66,8207.95 1049.02,8210.83 1049.93,8213.80 1049.42,8216.87 1047.47,8220.04"/>
    </edge>
    <edge id=":123069077_5" function="internal">
        <lane id=":123069077_5_0" index="0" disallow="tram rail_urban rail rail_electric ship" speed="3.65" length="4.67" shape="1046.66,8207.95 1047.00,8209.35 1046.76,8210.21 1045.92,8210.53 1044.49,8210.30"/>
    </edge>
    <edge id=":123069077_6" function="internal">
        <lane id=":123069077_6_0" index="0" disallow="tram rail_urban rail rail_electric ship" speed="6.52" length="8.69" shape="1045.01,8217.99 1046.25,8215.98 1046.58,8214.03 1045.99,8212.13 1044.49,8210.30"/>
    </edge>
    <edge id=":123069077_7" function="internal">
        <lane id=":123069077_7_0" index="0" disallow="tram rail_urban rail rail_electric ship" speed="8.88" length="13.31" shape="1045.01,8217.99 1047.66,8215.47 1050.52,8214.04 1053.59,8213.70 1056.86,8214.45"/>
    </edge>
    <edge id=":123069077_8" function="internal">
        <lane id=":123069077_8_0" index="0" disallow="tram rail_urban rail rail_electric ship" speed="3.65" length="4.67" shape="1045.01,8217.99 1046.39,8217.58 1047.26,8217.79 1047.62,8218.60 1047.47,8220.04"/>
    </edge>
    <edge id=":123069083_0" function="internal">
        <lane id=":123069083_0_0" index="0" disallow="tram rail_urban rail rail_electric ship" speed="13.89" length="12.68" shape="1243.37,8226.69 1240.56,8224.79 1237.99,8223.33 1235.27,8222.20 1232.03,8221.24"/>
    </edge>
    <edge id=":123069083_1" function="internal">
        <lane id=":123069083_1_0" index="0" disallow="tram rail_urban rail rail_electric ship" speed="7.96" length="5.37" shape="1243.37,8226.69 1240.52,8223.98 1239.95,8222.66"/>
    </edge>
    <edge id=":123069083_2" function="internal">
        <lane id=":123069083_2_0" index="0" disallow="tram rail_urban rail rail_electric ship" speed="3.65" length="2.34" shape="1243.37,8226.69 1242.86,8225.34 1242.99,8224.45"/>
    </edge>
    <edge id=":123069083_9" function="internal">
        <lane id=":123069083_9_0" index="0" disallow="tram rail_urban rail rail_electric ship" speed="7.96" length="8.91" shape="1239.95,8222.66 1239.25,8221.03 1239.55,8217.83 1241.42,8214.38"/>
    </edge>
    <edge id=":123069083_10" function="internal">
        <lane id=":123069083_10_0" index="0" disallow="tram rail_urban rail rail_electric ship" speed="3.65" length="2.34" shape="1242.99,8224.45 1243.78,8224.03 1245.22,8224.07"/>
    </edge>
    <edge id=":123069083_3" function="internal">
        <lane id=":123069083_3_0" index="0" disallow="tram rail_urban rail rail_electric ship" speed="6.46" length="9.03" shape="1243.99,8216.29 1242.80,8218.47 1242.62,8220.50 1243.42,8222.37 1245.22,8224.07"/>
    </edge>
    <edge id=":123069083_4" function="internal">
        <lane id=":123069083_4_0" index="0" disallow="tram rail_urban rail rail_electric ship" speed="9.35" length="13.79" shape="1243.99,8216.29 1241.37,8219.11 1238.51,8220.88 1235.39,8221.59 1232.03,8221.24"/>
    </edge>
    <edge id=":123069083_5" function="internal">
        <lane id=":123069083_5_0" index="0" disallow="tram rail_urban rail rail_electric ship" speed="3.65" length="4.67" shape="1243.99,8216.29 1242.63,8216.78 1241.75,8216.62 1241.35,8215.82 1241.42,8214.38"/>
    </edge>
    <edge id=":123069083_6" function="internal">
        <lane id=":123069083_6_0" index="0" disallow="tram rail_urban rail rail_electric ship" speed="8.04" length="10.01" shape="1232.80,8218.14 1235.18,8218.36 1237.41,8217.81 1239.49,8216.48 1241.42,8214.38"/>
    </edge>
    <edge id=":123069083_7" function="internal">
        <lane id=":123069083_7_0" index="0" disallow="tram rail_urban rail rail_electric ship" speed="13.89" length="13.85" shape="1232.80,8218.14 1236.21,8219.17 1239.30,8220.48 1242.24,8222.10 1245.22,8224.07"/>
    </edge>
    <edge id=":123069083_8" function="internal">
        <lane id=":123069083_8_0" index="0" disallow="tram rail_urban rail rail_electric ship" speed="3.65" length="2.34" shape="1232.80,8218.14 1233.77,8219.20 1233.97,8220.08"/>
    </edge>
    <edge id=":123069083_11" function="internal">
        <lane id=":123069083_11_0" index="0" disallow="tram rail_urban rail rail_electric ship" speed="3.65" length="2.34" shape="1233.97,8220.08 1233.38,8220.76 1232.03,8221.24"/>
    </edge>
    <edge id=":123180849_0" function="internal">
        <lane id=":123180849_0_0" index="0" disallow="tram rail_urban rail rail_electric ship" speed="13.89" length="16.17" shape="1344.00,8064.07 1342.30,8067.60 1340.95,8071.52 1339.85,8075.54 1338.90,8079.37"/>
    </edge>
    <edge id=":123180849_1" function="internal">
        <lane id=":123180849_1_0" index="0" disallow="tram rail_urban rail rail_electric ship" speed="13.89" length="5.39" shape="1344.00,8064.07 1341.49,8067.25 1340.48,8068.14"/>
    </edge>
    <edge id=":123180849_2" function="internal">
        <lane id=":123180849_2_0" index="0" disallow="tram rail_urban rail rail_electric ship" speed="3.65" length="2.19" shape="1344.00,8064.07 1342.70,8064.71 1341.96,8064.66"/>
    </edge>
    <edge id=":123180849_9" function="internal">
        <lane id=":123180849_9_0" index="0" disallow="tram rail_urban rail rail_electric ship" speed="13.89" length="11.82" shape="1340.48,8068.14 1338.12,8070.21 1334.43,8072.87 1330.96,8075.12"/>
    </edge>
    <edge id=":123180849_10" function="internal">
        <lane id=":123180849_10_0" index="0" disallow="tram rail_urban rail rail_electric ship" speed="3.65" length="2.49" shape="1341.96,8064.66 1341.81,8064.65 1341.32,8063.90 1341.23,8062.46"/>
    </edge>
    <edge id=":123180849_3" function="internal">
        <lane id=":123180849_3_0" index="0" disallow="tram rail_urban rail rail_electric ship" speed="13.89" length="15.71" shape="1329.25,8072.41 1332.56,8070.34 1335.88,8068.06 1338.89,8065.46 1341.23,8062.46"/>
    </edge>
    <edge id=":123180849_4" function="internal">
        <lane id=":123180849_4_0" index="0" disallow="tram rail_urban rail rail_electric ship" speed="7.44" length="19.56" shape="1329.25,8072.41 1334.90,8069.66 1338.39,8069.91 1339.73,8073.14 1338.90,8079.37"/>
    </edge>
    <edge id=":123180849_5" function="internal">
        <lane id=":123180849_5_0" index="0" disallow="tram rail_urban rail rail_electric ship" speed="3.65" length="4.67" shape="1329.25,8072.41 1330.70,8072.45 1331.46,8072.91 1331.55,8073.80 1330.96,8075.12"/>
    </edge>
    <edge id=":123180849_6" function="internal">
        <lane id=":123180849_6_0" index="0" disallow="tram rail_urban rail rail_electric ship" speed="5.47" length="9.80" shape="1335.80,8078.60 1336.21,8075.49 1335.54,8073.86 1333.79,8073.74 1330.96,8075.12"/>
    </edge>
    <edge id=":123180849_7" function="internal">
        <lane id=":123180849_7_0" index="0" disallow="tram rail_urban rail rail_electric ship" speed="13.89" length="17.08" shape="1335.80,8078.60 1336.79,8074.64 1338.02,8070.33 1339.49,8066.12 1341.23,8062.46"/>
    </edge>
    <edge id=":123180849_8" function="internal">
        <lane id=":123180849_8_0" index="0" disallow="tram rail_urban rail rail_electric ship" speed="3.65" length="2.34" shape="1335.80,8078.60 1336.86,8077.63 1337.73,8077.43"/>
    </edge>
    <edge id=":123180849_11" function="internal">
        <lane id=":123180849_11_0" index="0" disallow="tram rail_urban rail rail_electric ship" speed="3.65" length="2.34" shape="1337.73,8077.43 1338.41,8078.01 1338.90,8079.37"/>
    </edge>
    <edge id=":123180857_0" function="internal">
        <lane id=":123180857_0_0" index="0" disallow="tram rail_urban rail rail_electric ship" speed="3.65" length="4.67" shape="1193.64,7798.26 1194.49,7797.09 1195.30,7796.72 1196.08,7797.15 1196.84,7798.38"/>
    </edge>
    <edge id=":123229343_0" function="internal">
        <lane id=":123229343_0_0" index="0" disallow="tram rail_urban rail rail_electric ship" speed="13.89" length="10.56" shape="502.47,8690.96 501.49,8688.06 500.92,8685.92 500.53,8683.73 500.11,8680.69"/>
    </edge>
    <edge id=":123229343_1" function="internal">
        <lane id=":123229343_1_0" index="0" allow="delivery bicycle pedestrian" speed="7.37" length="4.92" shape="502.47,8690.96 502.03,8688.36 502.63,8686.16"/>
    </edge>
    <edge id=":123229343_2" function="internal">
        <lane id=":123229343_2_0" index="0" disallow="tram rail_urban rail rail_electric ship" speed="3.65" length="2.34" shape="502.47,8690.96 502.82,8689.56 503.44,8688.91"/>
    </edge>
    <edge id=":123229343_9" function="internal">
        <lane id=":123229343_9_0" index="0" allow="delivery bicycle pedestrian" speed="7.37" length="6.00" shape="502.63,8686.16 502.66,8686.06 504.35,8684.04 507.12,8682.31"/>
    </edge>
    <edge id=":123229343_10" function="internal">
        <lane id=":123229343_10_0" index="0" disallow="tram rail_urban rail rail_electric ship" speed="3.65" length="2.34" shape="503.44,8688.91 504.33,8689.02 505.49,8689.88"/>
    </edge>
    <edge id=":123229343_3" function="internal">
        <lane id=":123229343_3_0" index="0" disallow="tram rail_urban rail rail_electric ship" speed="5.71" length="6.17" shape="508.50,8685.19 506.81,8686.21 505.75,8687.33 505.30,8688.55 505.49,8689.88"/>
    </edge>
    <edge id=":123229343_4" function="internal">
        <lane id=":123229343_4_0" index="0" disallow="tram rail_urban rail rail_electric ship" speed="6.69" length="11.86" shape="508.50,8685.19 505.25,8686.22 502.77,8685.82 501.05,8683.97 500.11,8680.69"/>
    </edge>
    <edge id=":123229343_5" function="internal">
        <lane id=":123229343_5_0" index="0" allow="delivery bicycle pedestrian" speed="3.65" length="4.67" shape="508.50,8685.19 507.07,8684.99 506.37,8684.44 506.38,8683.55 507.12,8682.31"/>
    </edge>
    <edge id=":123229343_6" function="internal">
        <lane id=":123229343_6_0" index="0" allow="delivery bicycle pedestrian" speed="4.78" length="5.42" shape="503.28,8680.25 503.71,8681.75 504.49,8682.59 505.63,8682.78 507.12,8682.31"/>
    </edge>
    <edge id=":123229343_7" function="internal">
        <lane id=":123229343_7_0" index="0" disallow="tram rail_urban rail rail_electric ship" speed="13.89" length="9.92" shape="503.28,8680.25 503.68,8683.17 504.02,8685.16 504.54,8687.10 505.49,8689.88"/>
    </edge>
    <edge id=":123229343_8" function="internal">
        <lane id=":123229343_8_0" index="0" disallow="tram rail_urban rail rail_electric ship" speed="3.65" length="2.34" shape="503.28,8680.25 502.65,8681.55 501.92,8682.06"/>
    </edge>
    <edge id=":123229343_11" function="internal">
        <lane id=":123229343_11_0" index="0" disallow="tram rail_urban rail rail_electric ship" speed="3.65" length="2.34" shape="501.92,8682.06 501.07,8681.77 500.11,8680.69"/>
    </edge>
    <edge id=":123229356_0" function="internal">
        <lane id=":123229356_0_0" index="0" disallow="tram rail_urban rail rail_electric ship" speed="5.79" length="9.15" shape="685.97,8546.29 685.55,8543.64 684.41,8542.13 682.55,8541.78 679.99,8542.57"/>
    </edge>
    <edge id=":123229356_1" function="internal">
        <lane id=":123229356_1_0" index="0" disallow="tram rail_urban rail rail_electric ship" speed="22.22" length="18.33" shape="685.97,8546.29 686.10,8527.96"/>
    </edge>
    <edge id=":123229356_2" function="internal">
        <lane id=":123229356_2_0" index="0" disallow="tram rail_urban rail rail_electric ship" speed="10.77" length="7.64" shape="685.97,8546.29 686.69,8542.25 688.23,8539.06"/>
    </edge>
    <edge id=":123229356_3" function="internal">
        <lane id=":123229356_3_0" index="0" disallow="tram rail_urban rail rail_electric ship" speed="3.65" length="2.34" shape="685.97,8546.29 686.75,8545.07 687.54,8544.65"/>
    </edge>
    <edge id=":123229356_16" function="internal">
        <lane id=":123229356_16_0" index="0" disallow="tram rail_urban rail rail_electric ship" speed="10.77" length="10.11" shape="688.23,8539.06 688.73,8538.03 691.66,8534.32 695.05,8531.79"/>
    </edge>
    <edge id=":123229356_17" function="internal">
        <lane id=":123229356_17_0" index="0" disallow="tram rail_urban rail rail_electric ship" speed="3.65" length="2.34" shape="687.54,8544.65 688.35,8545.04 689.17,8546.22"/>
    </edge>
    <edge id=":123229356_4" function="internal">
        <lane id=":123229356_4_0" index="0" disallow="tram rail_urban rail rail_electric ship" speed="9.78" length="14.49" shape="696.47,8534.66 693.21,8536.76 690.91,8539.38 689.56,8542.54 689.17,8546.22"/>
    </edge>
    <edge id=":123229356_5" function="internal">
        <lane id=":123229356_5_0" index="0" disallow="tram rail_urban rail rail_electric ship" speed="13.89" length="18.28" shape="696.47,8534.66 679.99,8542.57"/>
    </edge>
    <edge id=":123229356_6" function="internal">
        <lane id=":123229356_6_0" index="0" disallow="tram rail_urban rail rail_electric ship" speed="7.42" length="16.58" shape="696.47,8534.66 691.78,8536.23 688.49,8535.63 686.59,8532.88 686.10,8527.96"/>
    </edge>
    <edge id=":123229356_7" function="internal">
        <lane id=":123229356_7_0" index="0" disallow="tram rail_urban rail rail_electric ship" speed="3.65" length="4.67" shape="696.47,8534.66 695.04,8534.47 694.32,8533.93 694.33,8533.04 695.05,8531.79"/>
    </edge>
    <edge id=":123229356_8" function="internal">
        <lane id=":123229356_8_0" index="0" disallow="tram rail_urban rail rail_electric ship" speed="5.70" length="9.21" shape="689.30,8528.06 689.57,8530.80 690.62,8532.33 692.45,8532.66 695.05,8531.79"/>
    </edge>
    <edge id=":123229356_9" function="internal">
        <lane id=":123229356_9_0" index="0" disallow="tram rail_urban rail rail_electric ship" speed="22.22" length="18.15" shape="689.30,8528.06 689.17,8546.22"/>
    </edge>
    <edge id=":123229356_10" function="internal">
        <lane id=":123229356_10_0" index="0" disallow="tram rail_urban rail rail_electric ship" speed="11.03" length="7.11" shape="689.30,8528.06 688.40,8532.21 687.11,8534.77"/>
    </edge>
    <edge id=":123229356_11" function="internal">
        <lane id=":123229356_11_0" index="0" disallow="tram rail_urban rail rail_electric ship" speed="3.65" length="2.34" shape="689.30,8528.06 688.46,8529.24 687.64,8529.61"/>
    </edge>
    <edge id=":123229356_18" function="internal">
        <lane id=":123229356_18_0" index="0" disallow="tram rail_urban rail rail_electric ship" speed="11.03" length="10.72" shape="687.11,8534.77 686.25,8536.47 683.31,8540.15 679.99,8542.57"/>
    </edge>
    <edge id=":123229356_19" function="internal">
        <lane id=":123229356_19_0" index="0" disallow="tram rail_urban rail rail_electric ship" speed="3.65" length="2.34" shape="687.64,8529.61 686.86,8529.18 686.10,8527.96"/>
    </edge>
    <edge id=":123229356_12" function="internal">
        <lane id=":123229356_12_0" index="0" disallow="tram rail_urban rail rail_electric ship" speed="10.04" length="14.67" shape="678.63,8539.67 681.79,8537.68 684.09,8535.06 685.52,8531.82 686.10,8527.96"/>
    </edge>
    <edge id=":123229356_13" function="internal">
        <lane id=":123229356_13_0" index="0" disallow="tram rail_urban rail rail_electric ship" speed="13.89" length="18.22" shape="678.63,8539.67 695.05,8531.79"/>
    </edge>
    <edge id=":123229356_14" function="internal">
        <lane id=":123229356_14_0" index="0" disallow="tram rail_urban rail rail_electric ship" speed="7.47" length="16.11" shape="678.63,8539.67 683.15,8538.27 686.41,8538.90 688.42,8541.55 689.17,8546.22"/>
    </edge>
    <edge id=":123229356_15" function="internal">
        <lane id=":123229356_15_0" index="0" disallow="tram rail_urban rail rail_electric ship" speed="3.65" length="4.67" shape="678.63,8539.67 680.05,8539.89 680.76,8540.44 680.73,8541.34 679.99,8542.57"/>
    </edge>
    <edge id=":123395358_0" function="internal">
        <lane id=":123395358_0_0" index="0" disallow="tram rail_urban rail rail_electric ship" speed="6.44" length="9.12" shape="1002.35,8283.70 1000.10,8282.53 998.05,8282.38 996.20,8283.25 994.56,8285.12"/>
    </edge>
    <edge id=":123395358_1" function="internal">
        <lane id=":123395358_1_0" index="0" disallow="tram rail_urban rail rail_electric ship" speed="13.89" length="14.68" shape="1002.35,8283.70 990.62,8274.88"/>
    </edge>
    <edge id=":123395358_2" function="internal">
        <lane id=":123395358_2_0" index="0" disallow="tram rail_urban rail rail_electric ship" speed="7.87" length="14.49" shape="1002.35,8283.70 999.44,8280.93 998.20,8277.95 998.63,8274.75 1000.73,8271.32"/>
    </edge>
    <edge id=":123395358_3" function="internal">
        <lane id=":123395358_3_0" index="0" disallow="tram rail_urban rail rail_electric ship" speed="3.65" length="4.67" shape="1002.35,8283.70 1001.84,8282.35 1001.97,8281.47 1002.76,8281.05 1004.20,8281.09"/>
    </edge>
    <edge id=":123395358_4" function="internal">
        <lane id=":123395358_4_0" index="0" disallow="tram rail_urban rail rail_electric ship" speed="6.35" length="9.04" shape="1003.19,8273.37 1001.88,8275.50 1001.61,8277.50 1002.39,8279.36 1004.20,8281.09"/>
    </edge>
    <edge id=":123395358_5" function="internal">
        <lane id=":123395358_5_0" index="0" disallow="tram rail_urban rail rail_electric ship" speed="22.22" length="14.59" shape="1003.19,8273.37 1000.88,8276.24 998.70,8279.11 996.61,8282.05 994.56,8285.12"/>
    </edge>
    <edge id=":123395358_6" function="internal">
        <lane id=":123395358_6_0" index="0" disallow="tram rail_urban rail rail_electric ship" speed="8.11" length="5.84" shape="1003.19,8273.37 1000.24,8276.07 998.51,8276.71"/>
    </edge>
    <edge id=":123395358_7" function="internal">
        <lane id=":123395358_7_0" index="0" disallow="tram rail_urban rail rail_electric ship" speed="3.65" length="2.34" shape="1003.19,8273.37 1001.81,8273.78 1000.94,8273.58"/>
    </edge>
    <edge id=":123395358_16" function="internal">
        <lane id=":123395358_16_0" index="0" disallow="tram rail_urban rail rail_electric ship" speed="8.11" length="8.53" shape="998.51,8276.71 997.17,8277.22 993.96,8276.82 990.62,8274.88"/>
    </edge>
    <edge id=":123395358_17" function="internal">
        <lane id=":123395358_17_0" index="0" disallow="tram rail_urban rail rail_electric ship" speed="3.65" length="2.34" shape="1000.94,8273.58 1000.58,8272.76 1000.73,8271.32"/>
    </edge>
    <edge id=":123395358_8" function="internal">
        <lane id=":123395358_8_0" index="0" disallow="tram rail_urban rail rail_electric ship" speed="6.63" length="9.29" shape="992.62,8272.38 994.76,8273.62 996.82,8273.85 998.81,8273.09 1000.73,8271.32"/>
    </edge>
    <edge id=":123395358_9" function="internal">
        <lane id=":123395358_9_0" index="0" disallow="tram rail_urban rail rail_electric ship" speed="13.89" length="14.50" shape="992.62,8272.38 1004.20,8281.09"/>
    </edge>
    <edge id=":123395358_10" function="internal">
        <lane id=":123395358_10_0" index="0" disallow="tram rail_urban rail rail_electric ship" speed="8.36" length="14.40" shape="992.62,8272.38 995.25,8275.18 996.46,8278.24 996.23,8281.55 994.56,8285.12"/>
    </edge>
    <edge id=":123395358_11" function="internal">
        <lane id=":123395358_11_0" index="0" disallow="tram rail_urban rail rail_electric ship" speed="3.65" length="4.67" shape="992.62,8272.38 993.05,8273.75 992.87,8274.63 992.06,8275.00 990.62,8274.88"/>
    </edge>
    <edge id=":123395358_12" function="internal">
        <lane id=":123395358_12_0" index="0" disallow="tram rail_urban rail rail_electric ship" speed="6.94" length="9.60" shape="991.87,8283.39 992.99,8281.00 993.16,8278.78 992.37,8276.74 990.62,8274.88"/>
    </edge>
    <edge id=":123395358_13" function="internal">
        <lane id=":123395358_13_0" index="0" disallow="tram rail_urban rail rail_electric ship" speed="22.22" length="14.97" shape="991.87,8283.39 993.95,8280.27 996.12,8277.22 998.38,8274.24 1000.73,8271.32"/>
    </edge>
    <edge id=":123395358_14" function="internal">
        <lane id=":123395358_14_0" index="0" disallow="tram rail_urban rail rail_electric ship" speed="7.94" length="6.19" shape="991.87,8283.39 994.48,8280.40 996.49,8279.45"/>
    </edge>
    <edge id=":123395358_15" function="internal">