<?xml version="1.0" encoding="UTF-8"?>

<!-- generated on Fri May  1 23:54:14 2020 by Eclipse SUMO netconvert Version 1.2.0
<configuration xmlns:xsi="http://www.w3.org/2001/XMLSchema-instance" xsi:noNamespaceSchemaLocation="http://sumo.dlr.de/xsd/netconvertConfiguration.xsd">

    <input>
        <node-files value="/Users/lillian/ns3/vsimrti-allinone/vsimrti/scenarios/120_Lasalle/120_lasalle.nod.xml"/>
        <edge-files value="/Users/lillian/ns3/vsimrti-allinone/vsimrti/scenarios/120_Lasalle/120_lasalle.edg.xml"/>
        <connection-files value="/Users/lillian/ns3/vsimrti-allinone/vsimrti/scenarios/120_Lasalle/120_lasalle.con.xml"/>
    </input>

    <output>
        <output-file value="/Users/lillian/ns3/vsimrti-allinone/vsimrti/scenarios/120_Lasalle/120_lasalle.net.xml"/>
    </output>

</configuration>
-->

<net version="1.1" junctionCornerDetail="5" limitTurnSpeed="5.50" xmlns:xsi="http://www.w3.org/2001/XMLSchema-instance" xsi:noNamespaceSchemaLocation="http://sumo.dlr.de/xsd/net_file.xsd">

    <location netOffset="-587376.67,-4517273.53" convBoundary="0.00,0.00,764.83,1669.47" origBoundary="587376.67,4517273.53,588141.50,4518943.00" projParameter="!"/>

    <edge id=":1332860726_0" function="internal">
        <lane id=":1332860726_0_0" index="0" speed="6.19" length="8.23" shape="91.63,1197.70 90.01,1198.95 89.24,1200.54 89.34,1202.48 90.29,1204.77"/>
    </edge>
    <edge id=":1332860726_1" function="internal">
        <lane id=":1332860726_1_0" index="0" speed="4.52" length="8.38" shape="91.63,1197.70 89.97,1199.68 88.46,1200.24 87.12,1199.37 85.93,1197.07"/>
    </edge>
    <edge id=":1332860726_2" function="internal">
        <lane id=":1332860726_2_0" index="0" speed="5.36" length="5.70" shape="83.29,1192.17 83.78,1193.37 84.46,1195.13 85.21,1196.63 85.93,1197.07"/>
    </edge>
    <edge id=":1332860726_3" function="internal">
        <lane id=":1332860726_3_0" index="0" speed="16.67" length="14.42" shape="83.29,1192.17 90.29,1204.77"/>
        <lane id=":1332860726_3_1" index="1" speed="16.67" length="14.42" shape="80.49,1193.72 87.50,1206.33"/>
    </edge>
    <edge id=":1332860731_0" function="internal">
        <lane id=":1332860731_0_0" index="0" speed="6.57" length="9.14" shape="161.76,1167.39 160.27,1165.39 158.49,1164.33 156.42,1164.22 154.06,1165.06"/>
    </edge>
    <edge id=":1332860731_1" function="internal">
        <lane id=":1332860731_1_0" index="0" speed="8.33" length="14.45" shape="161.76,1167.39 154.89,1154.68"/>
    </edge>
    <edge id=":1332860731_2" function="internal">
        <lane id=":1332860731_2_0" index="0" speed="8.00" length="5.93" shape="161.76,1167.39 160.41,1163.74 160.50,1161.70"/>
    </edge>
    <edge id=":1332860731_3" function="internal">
        <lane id=":1332860731_3_0" index="0" speed="3.65" length="2.34" shape="161.76,1167.39 161.89,1165.95 162.40,1165.22"/>
    </edge>
    <edge id=":1332860731_16" function="internal">
        <lane id=":1332860731_16_0" index="0" speed="8.00" length="8.27" shape="160.50,1161.70 160.55,1160.53 162.19,1157.78 165.33,1155.47"/>
    </edge>
    <edge id=":1332860731_17" function="internal">
        <lane id=":1332860731_17_0" index="0" speed="3.65" length="2.34" shape="162.40,1165.22 163.30,1165.19 164.57,1165.87"/>
    </edge>
    <edge id=":1332860731_4" function="internal">
        <lane id=":1332860731_4_0" index="0" speed="6.50" length="9.03" shape="166.84,1158.29 164.85,1159.76 163.81,1161.51 163.71,1163.55 164.57,1165.87"/>
    </edge>
    <edge id=":1332860731_5" function="internal">
        <lane id=":1332860731_5_0" index="0" speed="8.33" length="14.47" shape="166.84,1158.29 154.06,1165.06"/>
    </edge>
    <edge id=":1332860731_6" function="internal">
        <lane id=":1332860731_6_0" index="0" speed="8.02" length="14.24" shape="166.84,1158.29 163.19,1159.62 159.98,1159.47 157.21,1157.82 154.89,1154.68"/>
    </edge>
    <edge id=":1332860731_7" function="internal">
        <lane id=":1332860731_7_0" index="0" speed="3.65" length="4.67" shape="166.84,1158.29 165.41,1158.15 164.68,1157.64 164.65,1156.74 165.33,1155.47"/>
    </edge>
    <edge id=":1332860731_8" function="internal">
        <lane id=":1332860731_8_0" index="0" speed="6.53" length="9.08" shape="157.70,1153.16 159.19,1155.16 160.95,1156.22 163.00,1156.32 165.33,1155.47"/>
    </edge>
    <edge id=":1332860731_9" function="internal">
        <lane id=":1332860731_9_0" index="0" speed="8.33" length="14.45" shape="157.70,1153.16 164.57,1165.87"/>
    </edge>
    <edge id=":1332860731_10" function="internal">
        <lane id=":1332860731_10_0" index="0" speed="7.98" length="5.93" shape="157.70,1153.16 159.05,1156.82 158.96,1158.84"/>
    </edge>
    <edge id=":1332860731_11" function="internal">
        <lane id=":1332860731_11_0" index="0" speed="3.65" length="2.34" shape="157.70,1153.16 157.57,1154.59 157.06,1155.32"/>
    </edge>
    <edge id=":1332860731_18" function="internal">
        <lane id=":1332860731_18_0" index="0" speed="7.98" length="8.31" shape="158.96,1158.84 158.90,1160.03 157.23,1162.78 154.06,1165.06"/>
    </edge>
    <edge id=":1332860731_19" function="internal">
        <lane id=":1332860731_19_0" index="0" speed="3.65" length="2.34" shape="157.06,1155.32 156.16,1155.35 154.89,1154.68"/>
    </edge>
    <edge id=":1332860731_12" function="internal">
        <lane id=":1332860731_12_0" index="0" speed="6.48" length="9.03" shape="152.58,1162.23 154.59,1160.78 155.64,1159.04 155.74,1157.00 154.89,1154.68"/>
    </edge>
    <edge id=":1332860731_13" function="internal">
        <lane id=":1332860731_13_0" index="0" speed="8.33" length="14.43" shape="152.58,1162.23 165.33,1155.47"/>
    </edge>
    <edge id=":1332860731_14" function="internal">
        <lane id=":1332860731_14_0" index="0" speed="8.06" length="14.25" shape="152.58,1162.23 156.26,1160.92 159.48,1161.09 162.25,1162.74 164.57,1165.87"/>
    </edge>
    <edge id=":1332860731_15" function="internal">
        <lane id=":1332860731_15_0" index="0" speed="3.65" length="4.67" shape="152.58,1162.23 154.01,1162.38 154.74,1162.90 154.75,1163.80 154.06,1165.06"/>
    </edge>
    <edge id=":1504153604_0" function="internal">
        <lane id=":1504153604_0_0" index="0" speed="6.51" length="9.04" shape="182.82,962.90 180.83,964.37 179.79,966.13 179.70,968.18 180.56,970.50"/>
    </edge>
    <edge id=":1504153604_1" function="internal">
        <lane id=":1504153604_1_0" index="0" speed="8.33" length="14.56" shape="182.82,962.90 169.96,969.72"/>
    </edge>
    <edge id=":1504153604_2" function="internal">
        <lane id=":1504153604_2_0" index="0" speed="3.65" length="4.67" shape="182.82,962.90 181.39,962.77 180.65,962.25 180.62,961.36 181.30,960.08"/>
    </edge>
    <edge id=":1504153604_3" function="internal">
        <lane id=":1504153604_3_0" index="0" speed="6.50" length="9.03" shape="173.71,957.82 175.18,959.81 176.94,960.85 178.98,960.94 181.30,960.08"/>
    </edge>
    <edge id=":1504153604_4" function="internal">
        <lane id=":1504153604_4_0" index="0" speed="14.62" length="14.41" shape="173.71,957.82 180.56,970.50"/>
        <lane id=":1504153604_4_1" index="1" speed="14.62" length="14.41" shape="170.89,959.34 177.75,972.02"/>
    </edge>
    <edge id=":1504153604_6" function="internal">
        <lane id=":1504153604_6_0" index="0" speed="7.27" length="11.79" shape="170.89,959.34 172.42,962.92 172.77,965.84 171.95,968.10 169.96,969.72"/>
    </edge>
    <edge id=":1504153604_7" function="internal">
        <lane id=":1504153604_7_0" index="0" speed="8.33" length="14.45" shape="168.53,966.85 181.30,960.08"/>
    </edge>
    <edge id=":1504153604_8" function="internal">
        <lane id=":1504153604_8_0" index="0" speed="7.44" length="11.82" shape="168.53,966.85 171.00,966.23 173.36,966.88 175.61,968.81 177.75,972.02"/>
    </edge>
    <edge id=":1504153604_9" function="internal">
        <lane id=":1504153604_9_0" index="0" speed="3.65" length="4.67" shape="168.53,966.85 169.96,967.03 170.67,967.57 170.67,968.46 169.96,969.72"/>
    </edge>
    <edge id=":1504153626_0" function="internal">
        <lane id=":1504153626_0_0" index="0" speed="6.07" length="7.72" shape="408.51,845.21 407.38,843.89 405.87,843.33 403.98,843.53 401.71,844.49"/>
    </edge>
    <edge id=":1504153626_1" function="internal">
        <lane id=":1504153626_1_0" index="0" speed="16.67" length="12.70" shape="408.51,845.21 402.39,834.09"/>
    </edge>
    <edge id=":1504153626_2" function="internal">
        <lane id=":1504153626_2_0" index="0" speed="7.42" length="4.88" shape="408.51,845.21 408.01,842.52 408.57,840.45"/>
    </edge>
    <edge id=":1504153626_3" function="internal">
        <lane id=":1504153626_3_0" index="0" speed="4.02" length="4.52" shape="408.51,845.21 407.39,843.67 407.26,842.49 408.13,841.68 408.37,841.63"/>
    </edge>
    <edge id=":1504153626_16" function="internal">
        <lane id=":1504153626_16_0" index="0" speed="7.42" length="7.27" shape="408.57,840.45 408.82,839.51 410.57,836.75 412.90,834.81"/>
    </edge>
    <edge id=":1504153626_17" function="internal">
        <lane id=":1504153626_17_0" index="0" speed="4.02" length="1.66" shape="408.37,841.63 409.98,841.25"/>
    </edge>
    <edge id=":1504153626_4" function="internal">
        <lane id=":1504153626_4_0" index="0" speed="5.39" length="5.92" shape="414.41,837.63 412.27,838.85 410.83,839.86 410.06,840.66 409.98,841.25"/>
    </edge>
    <edge id=":1504153626_5" function="internal">
        <lane id=":1504153626_5_0" index="0" speed="8.33" length="14.44" shape="414.41,837.63 401.71,844.49"/>
    </edge>
    <edge id=":1504153626_6" function="internal">
        <lane id=":1504153626_6_0" index="0" speed="7.86" length="13.52" shape="414.41,837.63 411.26,838.42 407.77,837.97 404.60,836.46 402.39,834.09"/>
    </edge>
    <edge id=":1504153626_7" function="internal">
        <lane id=":1504153626_7_0" index="0" speed="3.65" length="4.67" shape="414.41,837.63 412.97,837.49 412.24,836.98 412.22,836.08 412.90,834.81"/>
    </edge>
    <edge id=":1504153626_8" function="internal">
        <lane id=":1504153626_8_0" index="0" speed="6.57" length="9.13" shape="405.19,832.54 406.70,834.53 408.48,835.58 410.55,835.67 412.90,834.81"/>
    </edge>
    <edge id=":1504153626_9" function="internal">
        <lane id=":1504153626_9_0" index="0" speed="16.67" length="9.93" shape="405.19,832.54 409.98,841.25"/>
    </edge>
    <edge id=":1504153626_10" function="internal">
        <lane id=":1504153626_10_0" index="0" speed="7.79" length="5.94" shape="405.19,832.54 406.01,835.66 405.67,838.36"/>
    </edge>
    <edge id=":1504153626_11" function="internal">
        <lane id=":1504153626_11_0" index="0" speed="3.65" length="2.34" shape="405.19,832.54 405.07,833.98 404.57,834.72"/>
    </edge>
    <edge id=":1504153626_18" function="internal">
        <lane id=":1504153626_18_0" index="0" speed="7.79" length="7.51" shape="405.67,838.36 405.57,839.13 404.07,842.30 401.71,844.49"/>
    </edge>
    <edge id=":1504153626_19" function="internal">
        <lane id=":1504153626_19_0" index="0" speed="3.65" length="2.34" shape="404.57,834.72 403.67,834.75 402.39,834.09"/>
    </edge>
    <edge id=":1504153626_12" function="internal">
        <lane id=":1504153626_12_0" index="0" speed="6.50" length="9.03" shape="400.17,841.68 402.16,840.20 403.19,838.44 403.27,836.40 402.39,834.09"/>
    </edge>
    <edge id=":1504153626_13" function="internal">
        <lane id=":1504153626_13_0" index="0" speed="8.33" length="14.46" shape="400.17,841.68 412.90,834.81"/>
    </edge>
    <edge id=":1504153626_14" function="internal">
        <lane id=":1504153626_14_0" index="0" speed="6.91" length="10.31" shape="400.17,841.68 402.77,840.69 405.77,840.17 408.42,840.30 409.98,841.25"/>
    </edge>
    <edge id=":1504153626_15" function="internal">
        <lane id=":1504153626_15_0" index="0" speed="3.65" length="4.67" shape="400.17,841.68 401.61,841.81 402.34,842.32 402.38,843.21 401.71,844.49"/>
    </edge>
    <edge id=":1506346479_0" function="internal">
        <lane id=":1506346479_0_0" index="0" speed="18.06" length="0.10" shape="446.06,1526.71 446.06,1526.71"/>
        <lane id=":1506346479_0_1" index="1" speed="18.06" length="0.10" shape="448.89,1525.21 448.89,1525.21"/>
    </edge>
    <edge id=":1506445789_0" function="internal">
        <lane id=":1506445789_0_0" index="0" speed="16.67" length="0.10" shape="516.03,698.30 516.07,698.38"/>
    </edge>
    <edge id=":1506445789_1" function="internal">
        <lane id=":1506445789_1_0" index="0" speed="16.67" length="0.10" shape="518.88,696.84 518.91,696.92"/>
    </edge>
    <edge id=":1506445821_0" function="internal">
        <lane id=":1506445821_0_0" index="0" speed="16.67" length="0.29" shape="398.01,482.35 397.88,482.09"/>
    </edge>
    <edge id=":1506445821_1" function="internal">
        <lane id=":1506445821_1_0" index="0" speed="16.67" length="0.31" shape="400.69,480.57 400.84,480.84"/>
    </edge>
    <edge id=":1506591534_0" function="internal">
        <lane id=":1506591534_0_0" index="0" speed="6.52" length="9.06" shape="233.45,1128.89 231.97,1126.89 230.21,1125.85 228.16,1125.75 225.83,1126.61"/>
    </edge>
    <edge id=":1506591534_1" function="internal">
        <lane id=":1506591534_1_0" index="0" speed="18.06" length="14.42" shape="233.45,1128.89 226.59,1116.20"/>
        <lane id=":1506591534_1_1" index="1" speed="18.06" length="14.42" shape="236.27,1127.36 229.40,1114.68"/>
    </edge>
    <edge id=":1506591534_3" function="internal">
        <lane id=":1506591534_3_0" index="0" speed="7.37" length="11.76" shape="236.27,1127.36 234.75,1123.81 234.36,1120.89 235.11,1118.58 237.00,1116.90"/>
    </edge>
    <edge id=":1506591534_4" function="internal">
        <lane id=":1506591534_4_0" index="0" speed="8.33" length="14.48" shape="238.56,1119.70 225.83,1126.61"/>
    </edge>
    <edge id=":1506591534_5" function="internal">
        <lane id=":1506591534_5_0" index="0" speed="7.31" length="11.77" shape="238.56,1119.70 236.13,1120.42 233.80,1119.82 231.55,1117.91 229.40,1114.68"/>
    </edge>
    <edge id=":1506591534_6" function="internal">
        <lane id=":1506591534_6_0" index="0" speed="3.65" length="4.67" shape="238.56,1119.70 237.12,1119.58 236.38,1119.08 236.34,1118.19 237.00,1116.90"/>
    </edge>
    <edge id=":1506591534_7" function="internal">
        <lane id=":1506591534_7_0" index="0" speed="6.50" length="9.03" shape="224.32,1123.79 226.31,1122.32 227.35,1120.57 227.45,1118.53 226.59,1116.20"/>
    </edge>
    <edge id=":1506591534_8" function="internal">
        <lane id=":1506591534_8_0" index="0" speed="8.33" length="14.43" shape="224.32,1123.79 237.00,1116.90"/>
    </edge>
    <edge id=":1506591534_9" function="internal">
        <lane id=":1506591534_9_0" index="0" speed="3.65" length="4.67" shape="224.32,1123.79 225.75,1123.92 226.49,1124.44 226.51,1125.33 225.83,1126.61"/>
    </edge>
    <edge id=":1506591536_0" function="internal">
        <lane id=":1506591536_0_0" index="0" speed="5.61" length="6.42" shape="154.75,983.75 153.47,981.64 152.30,980.27 151.26,979.64 150.33,979.74"/>
    </edge>
    <edge id=":1506591536_1" function="internal">
        <lane id=":1506591536_1_0" index="0" speed="14.62" length="14.42" shape="154.75,983.75 147.90,971.05"/>
        <lane id=":1506591536_1_1" index="1" speed="14.62" length="14.42" shape="157.56,982.22 150.73,969.54"/>
    </edge>
    <edge id=":1506591536_3" function="internal">
        <lane id=":1506591536_3_0" index="0" speed="7.26" length="11.78" shape="157.56,982.22 156.04,978.65 155.68,975.74 156.50,973.48 158.49,971.86"/>
    </edge>
    <edge id=":1506591536_4" function="internal">
        <lane id=":1506591536_4_0" index="0" speed="8.33" length="10.83" shape="159.92,974.73 150.33,979.74"/>
    </edge>
    <edge id=":1506591536_5" function="internal">
        <lane id=":1506591536_5_0" index="0" speed="7.43" length="11.82" shape="159.92,974.73 157.45,975.35 155.09,974.69 152.85,972.76 150.73,969.54"/>
    </edge>
    <edge id=":1506591536_6" function="internal">
        <lane id=":1506591536_6_0" index="0" speed="3.65" length="4.67" shape="159.92,974.73 158.49,974.55 157.78,974.01 157.78,973.11 158.49,971.86"/>
    </edge>
    <edge id=":1506591536_7" function="internal">
        <lane id=":1506591536_7_0" index="0" speed="5.59" length="6.39" shape="148.81,976.92 149.41,976.20 149.45,974.99 148.95,973.27 147.90,971.05"/>
    </edge>
    <edge id=":1506591536_8" function="internal">
        <lane id=":1506591536_8_0" index="0" speed="8.33" length="10.92" shape="148.81,976.92 158.49,971.86"/>
    </edge>
    <edge id=":1506591536_9" function="internal">
        <lane id=":1506591536_9_0" index="0" speed="3.65" length="4.67" shape="148.81,976.92 150.25,977.06 150.98,977.57 151.01,978.47 150.33,979.74"/>
    </edge>
    <edge id=":1506599375_0" function="internal">
        <lane id=":1506599375_0_0" index="0" speed="8.33" length="0.29" shape="405.48,1124.45 405.21,1124.60"/>
        <lane id=":1506599375_0_1" index="1" speed="8.33" length="0.29" shape="403.97,1121.64 403.73,1121.76"/>
    </edge>
    <edge id=":1506599377_0" function="internal">
        <lane id=":1506599377_0_0" index="0" speed="6.08" length="7.77" shape="301.32,1179.87 299.95,1181.00 299.35,1182.51 299.52,1184.41 300.46,1186.69"/>
    </edge>
    <edge id=":1506599377_1" function="internal">
        <lane id=":1506599377_1_0" index="0" speed="7.65" length="12.93" shape="299.82,1177.05 297.30,1179.02 296.10,1181.53 296.21,1184.59 297.64,1188.20"/>
    </edge>
    <edge id=":1506599377_2" function="internal">
        <lane id=":1506599377_2_0" index="0" speed="18.06" length="14.38" shape="293.62,1174.03 300.46,1186.69"/>
        <lane id=":1506599377_2_1" index="1" speed="18.06" length="14.38" shape="290.81,1175.56 297.64,1188.20"/>
    </edge>
    <edge id=":1506599378_0" function="internal">
        <lane id=":1506599378_0_0" index="0" speed="5.98" length="7.40" shape="261.33,1107.55 260.17,1108.57 259.71,1110.01 259.95,1111.87 260.90,1114.15"/>
    </edge>
    <edge id=":1506599378_1" function="internal">
        <lane id=":1506599378_1_0" index="0" speed="8.33" length="12.34" shape="261.33,1107.55 250.43,1113.32"/>
    </edge>
    <edge id=":1506599378_2" function="internal">
        <lane id=":1506599378_2_0" index="0" speed="3.65" length="4.68" shape="261.33,1107.55 259.89,1107.46 259.15,1106.96 259.09,1106.07 259.73,1104.78"/>
    </edge>
    <edge id=":1506599378_3" function="internal">
        <lane id=":1506599378_3_0" index="0" speed="6.01" length="7.42" shape="253.98,1101.43 255.39,1103.49 256.81,1104.73 258.26,1105.16 259.73,1104.78"/>
    </edge>
    <edge id=":1506599378_4" function="internal">
        <lane id=":1506599378_4_0" index="0" speed="18.06" length="14.43" shape="253.98,1101.43 260.90,1114.15"/>
        <lane id=":1506599378_4_1" index="1" speed="18.06" length="14.43" shape="251.19,1103.00 258.06,1115.63"/>
    </edge>
    <edge id=":1506599378_6" function="internal">
        <lane id=":1506599378_6_0" index="0" speed="7.23" length="11.74" shape="251.19,1103.00 252.77,1106.53 253.17,1109.42 252.39,1111.69 250.43,1113.32"/>
    </edge>
    <edge id=":1506599378_7" function="internal">
        <lane id=":1506599378_7_0" index="0" speed="8.33" length="12.19" shape="248.96,1110.48 259.73,1104.78"/>
    </edge>
    <edge id=":1506599378_8" function="internal">
        <lane id=":1506599378_8_0" index="0" speed="7.35" length="11.76" shape="248.96,1110.48 251.42,1109.82 253.76,1110.46 255.97,1112.40 258.06,1115.63"/>
    </edge>
    <edge id=":1506599378_9" function="internal">
        <lane id=":1506599378_9_0" index="0" speed="3.65" length="4.67" shape="248.96,1110.48 250.39,1110.64 251.11,1111.17 251.13,1112.06 250.43,1113.32"/>
    </edge>
    <edge id=":1506599382_0" function="internal">
        <lane id=":1506599382_0_0" index="0" speed="8.33" length="0.31" shape="366.96,1051.00 366.68,1051.15"/>
    </edge>
    <edge id=":1506599382_1" function="internal">
        <lane id=":1506599382_1_0" index="0" speed="8.33" length="0.26" shape="365.17,1048.32 365.40,1048.20"/>
    </edge>
    <edge id=":1506616203_0" function="internal">
        <lane id=":1506616203_0_0" index="0" speed="8.33" length="0.30" shape="207.65,1252.29 207.51,1252.03"/>
    </edge>
    <edge id=":1506616203_1" function="internal">
        <lane id=":1506616203_1_0" index="0" speed="8.33" length="0.30" shape="210.33,1250.51 210.47,1250.77"/>
    </edge>
    <edge id=":1506616204_0" function="internal">
        <lane id=":1506616204_0_0" index="0" speed="18.06" length="0.30" shape="279.70,1214.05 279.57,1213.80"/>
        <lane id=":1506616204_0_1" index="1" speed="18.06" length="0.30" shape="282.54,1212.56 282.39,1212.29"/>
    </edge>
    <edge id=":1669455257_0" function="internal">
        <lane id=":1669455257_0_0" index="0" speed="16.67" length="0.29" shape="565.25,939.02 565.06,939.23"/>
    </edge>
    <edge id=":1669455257_1" function="internal">
        <lane id=":1669455257_1_0" index="0" speed="16.67" length="0.16" shape="562.78,936.99 562.89,936.87"/>
    </edge>
    <edge id=":1669455258_0" function="internal">
        <lane id=":1669455258_0_0" index="0" speed="16.67" length="0.31" shape="581.72,912.04 581.62,912.33"/>
    </edge>
    <edge id=":1669455258_1" function="internal">
        <lane id=":1669455258_1_0" index="0" speed="16.67" length="0.29" shape="578.59,911.31 578.68,911.03"/>
    </edge>
    <edge id=":1669455259_0" function="internal">
        <lane id=":1669455259_0_0" index="0" speed="16.67" length="0.36" shape="573.88,928.38 573.68,928.69"/>
    </edge>
    <edge id=":1669455259_1" function="internal">
        <lane id=":1669455259_1_0" index="0" speed="16.67" length="0.12" shape="571.05,926.88 571.12,926.77"/>
    </edge>
    <edge id=":1669455260_0" function="internal">
        <lane id=":1669455260_0_0" index="0" speed="16.67" length="0.26" shape="579.62,917.33 579.52,917.56"/>
    </edge>
    <edge id=":1669455260_1" function="internal">
        <lane id=":1669455260_1_0" index="0" speed="16.67" length="0.31" shape="576.58,916.28 576.71,916.00"/>
    </edge>
    <edge id=":1669455261_0" function="internal">
        <lane id=":1669455261_0_0" index="0" speed="16.67" length="0.10" shape="580.20,871.30 580.22,871.38"/>
    </edge>
    <edge id=":1669455261_1" function="internal">
        <lane id=":1669455261_1_0" index="0" speed="16.67" length="0.10" shape="583.30,870.50 583.32,870.57"/>
    </edge>
    <edge id=":1669455262_0" function="internal">
        <lane id=":1669455262_0_0" index="0" speed="16.67" length="0.22" shape="581.88,880.01 581.86,879.79"/>
    </edge>
    <edge id=":1669455262_1" function="internal">
        <lane id=":1669455262_1_0" index="0" speed="16.67" length="0.31" shape="585.03,879.36 585.06,879.67"/>
    </edge>
    <edge id=":1669455263_0" function="internal">
        <lane id=":1669455263_0_0" index="0" speed="16.67" length="0.10" shape="581.12,875.23 581.14,875.31"/>
    </edge>
    <edge id=":1669455263_1" function="internal">
        <lane id=":1669455263_1_0" index="0" speed="16.67" length="0.10" shape="584.25,874.58 584.27,874.67"/>
    </edge>
    <edge id=":1669455264_0" function="internal">
        <lane id=":1669455264_0_0" index="0" speed="16.67" length="0.31" shape="550.69,950.41 550.42,950.56"/>
    </edge>
    <edge id=":1669455264_1" function="internal">
        <lane id=":1669455264_1_0" index="0" speed="16.67" length="0.22" shape="548.83,947.78 549.02,947.67"/>
    </edge>
    <edge id=":1669455265_0" function="internal">
        <lane id=":1669455265_0_0" index="0" speed="16.67" length="0.10" shape="560.07,943.98 560.02,944.02"/>
    </edge>
    <edge id=":1669455265_1" function="internal">
        <lane id=":1669455265_1_0" index="0" speed="16.67" length="0.10" shape="558.01,941.53 557.95,941.58"/>
    </edge>
    <edge id=":1669455266_0" function="internal">
        <lane id=":1669455266_0_0" index="0" speed="16.67" length="0.10" shape="562.84,941.49 562.78,941.55"/>
    </edge>
    <edge id=":1669455266_1" function="internal">
        <lane id=":1669455266_1_0" index="0" speed="16.67" length="0.10" shape="560.62,939.19 560.56,939.25"/>
    </edge>
    <edge id=":1669455267_0" function="internal">
        <lane id=":1669455267_0_0" index="0" speed="16.67" length="0.25" shape="577.75,863.68 577.67,863.45"/>
    </edge>
    <edge id=":1669455267_1" function="internal">
        <lane id=":1669455267_1_0" index="0" speed="16.67" length="0.31" shape="580.66,862.32 580.77,862.61"/>
    </edge>
    <edge id=":1669455268_0" function="internal">
        <lane id=":1669455268_0_0" index="0" speed="16.67" length="0.29" shape="582.23,884.52 582.21,884.23"/>
    </edge>
    <edge id=":1669455268_1" function="internal">
        <lane id=":1669455268_1_0" index="0" speed="16.67" length="0.31" shape="585.41,884.04 585.42,884.35"/>
    </edge>
    <edge id=":1669455269_0" function="internal">
        <lane id=":1669455269_0_0" index="0" speed="16.67" length="0.28" shape="585.21,895.99 585.18,896.26"/>
    </edge>
    <edge id=":1669455269_1" function="internal">
        <lane id=":1669455269_1_0" index="0" speed="16.67" length="0.14" shape="582.00,895.92 582.01,895.77"/>
    </edge>
    <edge id=":1669455270_0" function="internal">
        <lane id=":1669455270_0_0" index="0" speed="16.67" length="0.31" shape="541.83,955.48 541.56,955.63"/>
    </edge>
    <edge id=":1669455270_1" function="internal">
        <lane id=":1669455270_1_0" index="0" speed="16.67" length="0.22" shape="540.05,952.81 540.24,952.70"/>
    </edge>
    <edge id=":1695379674_0" function="internal">
        <lane id=":1695379674_0_0" index="0" speed="16.67" length="3.31" shape="235.74,1561.91 235.86,1562.93 235.95,1563.63 236.02,1564.33 236.04,1565.36"/>
        <lane id=":1695379674_0_1" index="1" speed="16.67" length="3.31" shape="232.56,1562.21 232.66,1563.14 232.76,1563.77 232.82,1564.41 232.84,1565.35"/>
    </edge>
    <edge id=":1695379692_0" function="internal">
        <lane id=":1695379692_0_0" index="0" speed="8.33" length="0.30" shape="682.36,975.66 682.09,975.81"/>
        <lane id=":1695379692_0_1" index="1" speed="8.33" length="0.30" shape="680.81,972.86 680.56,973.00"/>
    </edge>
    <edge id=":1705982028_0" function="internal">
        <lane id=":1705982028_0_0" index="0" speed="16.67" length="0.47" shape="229.04,1635.01 229.04,1635.08 229.04,1635.12 229.04,1635.17 229.05,1635.24"/>
        <lane id=":1705982028_0_1" index="1" speed="16.67" length="0.47" shape="225.85,1634.82 225.84,1635.03 225.83,1635.18 225.84,1635.32 225.86,1635.53"/>
    </edge>
    <edge id=":1705982064_0" function="internal">
        <lane id=":1705982064_0_0" index="0" speed="16.67" length="0.29" shape="168.19,1378.03 168.21,1378.07 168.22,1378.09 168.23,1378.12 168.25,1378.16"/>
        <lane id=":1705982064_0_1" index="1" speed="16.67" length="0.29" shape="165.25,1379.28 165.30,1379.40 165.33,1379.48 165.37,1379.56 165.44,1379.68"/>
    </edge>
    <edge id=":1705982071_0" function="internal">
        <lane id=":1705982071_0_0" index="0" speed="16.67" length="0.34" shape="230.98,1650.54 230.98,1650.59 230.99,1650.62 231.00,1650.65 231.01,1650.70"/>
        <lane id=":1705982071_0_1" index="1" speed="16.67" length="0.34" shape="227.81,1651.04 227.84,1651.19 227.86,1651.29 227.88,1651.39 227.92,1651.54"/>
    </edge>
    <edge id=":1705982127_0" function="internal">
        <lane id=":1705982127_0_0" index="0" speed="16.67" length="0.35" shape="161.70,1362.76 161.72,1362.80 161.73,1362.84 161.74,1362.87 161.76,1362.92"/>
        <lane id=":1705982127_0_1" index="1" speed="16.67" length="0.35" shape="158.64,1363.68 158.68,1363.83 158.72,1363.93 158.76,1364.03 158.82,1364.17"/>
    </edge>
    <edge id=":1705982137_0" function="internal">
        <lane id=":1705982137_0_0" index="0" speed="16.67" length="0.28" shape="159.18,1354.38 159.25,1354.62"/>
        <lane id=":1705982137_0_1" index="1" speed="16.67" length="0.28" shape="156.10,1355.24 156.18,1355.54"/>
    </edge>
    <edge id=":1705982149_0" function="internal">
        <lane id=":1705982149_0_0" index="0" speed="16.67" length="0.24" shape="229.50,1640.29 229.52,1640.47"/>
        <lane id=":1705982149_0_1" index="1" speed="16.67" length="0.24" shape="226.31,1640.58 226.35,1640.88"/>
    </edge>
    <edge id=":1705982178_0" function="internal">
        <lane id=":1705982178_0_0" index="0" speed="16.67" length="0.24" shape="232.22,1655.17 232.25,1655.28"/>
        <lane id=":1705982178_0_1" index="1" speed="16.67" length="0.24" shape="229.13,1656.00 229.23,1656.34"/>
    </edge>
    <edge id=":1705982205_0" function="internal">
        <lane id=":1705982205_0_0" index="0" speed="16.67" length="0.26" shape="230.18,1645.53 230.22,1645.75"/>
        <lane id=":1705982205_0_1" index="1" speed="16.67" length="0.26" shape="227.01,1645.95 227.06,1646.25"/>
    </edge>
    <edge id=":1705982209_0" function="internal">
        <lane id=":1705982209_0_0" index="0" speed="16.67" length="0.19" shape="229.78,1620.08 229.77,1620.17"/>
        <lane id=":1705982209_0_1" index="1" speed="16.67" length="0.19" shape="226.61,1619.68 226.58,1619.95"/>
    </edge>
    <edge id=":1705982214_0" function="internal">
        <lane id=":1705982214_0_0" index="0" speed="11.11" length="0.70" shape="158.88,1348.98 158.83,1348.81"/>
        <lane id=":1705982214_0_1" index="1" speed="7.13" length="0.70" shape="157.04,1346.36 156.73,1346.56 156.51,1346.68 156.32,1346.84 156.11,1347.13"/>
    </edge>
    <edge id=":1705982216_0" function="internal">
        <lane id=":1705982216_0_0" index="0" speed="16.67" length="0.16" shape="234.96,1553.61 234.99,1553.83"/>
        <lane id=":1705982216_0_1" index="1" speed="16.67" length="0.16" shape="231.79,1554.05 231.80,1554.12"/>
    </edge>
    <edge id=":1775693152_0" function="internal">