<edges>
	<edge id="418371676_3579432162_42435380_3579432162" from="3579432162" to="1807949739" numLanes="1" speed="16.67" />
	<edge id="418371676_3579432162_42435380_1807949739" from="1807949739" to="6791440561" numLanes="1" speed="16.67" />
	<edge id="418371676_3579432162_42435380_6791440561" from="6791440561" to="1669455270" numLanes="1" speed="16.67" />
	<edge id="418371676_3579432162_42435380_1669455270" from="1669455270" to="1669455264" numLanes="1" speed="16.67" />
	<edge id="418371676_3579432162_42435380_1669455264" from="1669455264" to="1807949736" numLanes="1" speed="16.67" />
	<edge id="418371676_3579432162_42435380_1807949736" from="1807949736" to="5694954656" numLanes="1" speed="16.67" />
	<edge id="418371676_3579432162_42435380_5694954656" from="5694954656" to="6978508651" numLanes="1" speed="16.67" />
	<edge id="418371676_3579432162_42435380_6978508651" from="6978508651" to="1669455265" numLanes="1" speed="16.67" />
	<edge id="418371676_3579432162_42435380_1669455265" from="1669455265" to="6978508654" numLanes="1" speed="16.67" />
	<edge id="418371676_3579432162_42435380_6978508654" from="6978508654" to="1669455266" numLanes="1" speed="16.67" />
	<edge id="418371676_3579432162_42435380_1669455266" from="1669455266" to="1669455257" numLanes="1" speed="16.67" />
	<edge id="418371676_3579432162_42435380_1669455257" from="1669455257" to="470209434" numLanes="1" speed="16.67" />
	<edge id="418371676_3579432162_42435380_470209434" from="470209434" to="5694954657" numLanes="1" speed="16.67" />
	<edge id="418371676_3579432162_42435380_5694954657" from="5694954657" to="6250061780" numLanes="1" speed="16.67" />
	<edge id="418371676_3579432162_42435380_6250061780" from="6250061780" to="1669455259" numLanes="1" speed="16.67" />
	<edge id="418371676_3579432162_42435380_1669455259" from="1669455259" to="6250061752" numLanes="1" speed="16.67" />
	<edge id="418371676_3579432162_42435380_6250061752" from="6250061752" to="42435353" numLanes="1" speed="16.67" />
	<edge id="418371676_3579432162_42435380_42435353" from="42435353" to="6250061779" numLanes="1" speed="16.67" />
	<edge id="418371676_3579432162_42435380_6250061779" from="6250061779" to="1669455260" numLanes="1" speed="16.67" />
	<edge id="418371676_3579432162_42435380_1669455260" from="1669455260" to="6790551435" numLanes="1" speed="16.67" />
	<edge id="418371676_3579432162_42435380_6790551435" from="6790551435" to="6250061773" numLanes="1" speed="16.67" />
	<edge id="418371676_3579432162_42435380_6250061773" from="6250061773" to="6250061770" numLanes="1" speed="16.67" />
	<edge id="418371676_3579432162_42435380_6250061770" from="6250061770" to="1669455258" numLanes="1" speed="16.67" />
	<edge id="418371676_3579432162_42435380_1669455258" from="1669455258" to="6250061761" numLanes="1" speed="16.67" />
	<edge id="418371676_3579432162_42435380_6250061761" from="6250061761" to="6250061754" numLanes="1" speed="16.67" />
	<edge id="418371676_3579432162_42435380_6250061754" from="6250061754" to="6250061765" numLanes="1" speed="16.67" />
	<edge id="418371676_3579432162_42435380_6250061765" from="6250061765" to="6250061759" numLanes="1" speed="16.67" />
	<edge id="418371676_3579432162_42435380_6250061759" from="6250061759" to="6250061757" numLanes="1" speed="16.67" />
	<edge id="418371676_3579432162_42435380_6250061757" from="6250061757" to="6250061772" numLanes="1" speed="16.67" />
	<edge id="418371676_3579432162_42435380_6250061772" from="6250061772" to="470209421" numLanes="1" speed="16.67" />
	<edge id="418371676_3579432162_42435380_470209421" from="470209421" to="6250061778" numLanes="1" speed="16.67" />
	<edge id="418371676_3579432162_42435380_6250061778" from="6250061778" to="6250061776" numLanes="1" speed="16.67" />
	<edge id="418371676_3579432162_42435380_6250061776" from="6250061776" to="6250061775" numLanes="1" speed="16.67" />
	<edge id="418371676_3579432162_42435380_6250061775" from="6250061775" to="1669455269" numLanes="1" speed="16.67" />
	<edge id="418371676_3579432162_42435380_1669455269" from="1669455269" to="6250061767" numLanes="1" speed="16.67" />
	<edge id="418371676_3579432162_42435380_6250061767" from="6250061767" to="6250061762" numLanes="1" speed="16.67" />
	<edge id="418371676_3579432162_42435380_6250061762" from="6250061762" to="6250061763" numLanes="1" speed="16.67" />
	<edge id="418371676_3579432162_42435380_6250061763" from="6250061763" to="470209420" numLanes="1" speed="16.67" />
	<edge id="418371676_3579432162_42435380_470209420" from="470209420" to="6250061777" numLanes="1" speed="16.67" />
	<edge id="418371676_3579432162_42435380_6250061777" from="6250061777" to="1669455268" numLanes="1" speed="16.67" />
	<edge id="418371676_3579432162_42435380_1669455268" from="1669455268" to="6250061760" numLanes="1" speed="16.67" />
	<edge id="418371676_3579432162_42435380_6250061760" from="6250061760" to="6250061768" numLanes="1" speed="16.67" />
	<edge id="418371676_3579432162_42435380_6250061768" from="6250061768" to="1669455262" numLanes="1" speed="16.67" />
	<edge id="418371676_3579432162_42435380_1669455262" from="1669455262" to="6250061753" numLanes="1" speed="16.67" />
	<edge id="418371676_3579432162_42435380_6250061753" from="6250061753" to="1669455263" numLanes="1" speed="16.67" />
	<edge id="418371676_3579432162_42435380_1669455263" from="1669455263" to="1669455261" numLanes="1" speed="16.67" />
	<edge id="418371676_3579432162_42435380_1669455261" from="1669455261" to="6794063532" numLanes="1" speed="16.67" />
	<edge id="418371676_3579432162_42435380_6794063532" from="6794063532" to="1669455267" numLanes="1" speed="16.67" />
	<edge id="418371676_3579432162_42435380_1669455267" from="1669455267" to="6791440543" numLanes="1" speed="16.67" />
	<edge id="418371676_3579432162_42435380_6791440543" from="6791440543" to="42435380" numLanes="1" speed="16.67" />
	<edge id="455675302_1504153604_1506591536_1504153604" from="1504153604" to="1506591536" numLanes="1" speed="8.33" />
	<edge id="444907552_1332860731_42421865_1332860731" from="1332860731" to="6223571509" numLanes="1" speed="8.33" />
	<edge id="444907552_1332860731_42421865_6223571509" from="6223571509" to="1506616203" numLanes="1" speed="8.33" />
	<edge id="444907552_1332860731_42421865_1506616203" from="1506616203" to="6868145377" numLanes="1" speed="8.33" />
	<edge id="444907552_1332860731_42421865_6868145377" from="6868145377" to="6223571510" numLanes="1" speed="8.33" />
	<edge id="444907552_1332860731_42421865_6223571510" from="6223571510" to="42421865" numLanes="1" speed="8.33" />
	<edge id="309956784_42421852_42438928_42421852" from="42421852" to="7087041442" numLanes="1" speed="16.67" />
	<edge id="309956784_42421852_42438928_7087041442" from="7087041442" to="7087063689" numLanes="1" speed="16.67" />
	<edge id="309956784_42421852_42438928_7087063689" from="7087063689" to="3579426492" numLanes="1" speed="16.67" />
	<edge id="309956784_42421852_42438928_3579426492" from="3579426492" to="7198971072" numLanes="1" speed="16.67" />
	<edge id="309956784_42421852_42438928_7198971072" from="7198971072" to="42438928" numLanes="1" speed="16.67" />
	<edge id="664903778_6223571522_6223571521_6223571522" from="6223571522" to="6223571521" numLanes="1" speed="16.67" />
	<edge id="196117063_42429718_470209122_42429718" from="42429718" to="470209122" numLanes="1" speed="8.33" />
	<edge id="418371676_42435380_3579432162_42435380" from="42435380" to="6791440543" numLanes="1" speed="16.67" />
	<edge id="418371676_42435380_3579432162_6791440543" from="6791440543" to="1669455267" numLanes="1" speed="16.67" />
	<edge id="418371676_42435380_3579432162_1669455267" from="1669455267" to="6794063532" numLanes="1" speed="16.67" />
	<edge id="418371676_42435380_3579432162_6794063532" from="6794063532" to="1669455261" numLanes="1" speed="16.67" />
	<edge id="418371676_42435380_3579432162_1669455261" from="1669455261" to="1669455263" numLanes="1" speed="16.67" />
	<edge id="418371676_42435380_3579432162_1669455263" from="1669455263" to="6250061753" numLanes="1" speed="16.67" />
	<edge id="418371676_42435380_3579432162_6250061753" from="6250061753" to="1669455262" numLanes="1" speed="16.67" />
	<edge id="418371676_42435380_3579432162_1669455262" from="1669455262" to="6250061768" numLanes="1" speed="16.67" />
	<edge id="418371676_42435380_3579432162_6250061768" from="6250061768" to="6250061760" numLanes="1" speed="16.67" />
	<edge id="418371676_42435380_3579432162_6250061760" from="6250061760" to="1669455268" numLanes="1" speed="16.67" />
	<edge id="418371676_42435380_3579432162_1669455268" from="1669455268" to="6250061777" numLanes="1" speed="16.67" />
	<edge id="418371676_42435380_3579432162_6250061777" from="6250061777" to="470209420" numLanes="1" speed="16.67" />
	<edge id="418371676_42435380_3579432162_470209420" from="470209420" to="6250061763" numLanes="1" speed="16.67" />
	<edge id="418371676_42435380_3579432162_6250061763" from="6250061763" to="6250061762" numLanes="1" speed="16.67" />
	<edge id="418371676_42435380_3579432162_6250061762" from="6250061762" to="6250061767" numLanes="1" speed="16.67" />
	<edge id="418371676_42435380_3579432162_6250061767" from="6250061767" to="1669455269" numLanes="1" speed="16.67" />
	<edge id="418371676_42435380_3579432162_1669455269" from="1669455269" to="6250061775" numLanes="1" speed="16.67" />
	<edge id="418371676_42435380_3579432162_6250061775" from="6250061775" to="6250061776" numLanes="1" speed="16.67" />
	<edge id="418371676_42435380_3579432162_6250061776" from="6250061776" to="6250061778" numLanes="1" speed="16.67" />
	<edge id="418371676_42435380_3579432162_6250061778" from="6250061778" to="470209421" numLanes="1" speed="16.67" />
	<edge id="418371676_42435380_3579432162_470209421" from="470209421" to="6250061772" numLanes="1" speed="16.67" />
	<edge id="418371676_42435380_3579432162_6250061772" from="6250061772" to="6250061757" numLanes="1" speed="16.67" />
	<edge id="418371676_42435380_3579432162_6250061757" from="6250061757" to="6250061759" numLanes="1" speed="16.67" />
	<edge id="418371676_42435380_3579432162_6250061759" from="6250061759" to="6250061765" numLanes="1" speed="16.67" />
	<edge id="418371676_42435380_3579432162_6250061765" from="6250061765" to="6250061754" numLanes="1" speed="16.67" />
	<edge id="418371676_42435380_3579432162_6250061754" from="6250061754" to="6250061761" numLanes="1" speed="16.67" />
	<edge id="418371676_42435380_3579432162_6250061761" from="6250061761" to="1669455258" numLanes="1" speed="16.67" />
	<edge id="418371676_42435380_3579432162_1669455258" from="1669455258" to="6250061770" numLanes="1" speed="16.67" />
	<edge id="418371676_42435380_3579432162_6250061770" from="6250061770" to="6250061773" numLanes="1" speed="16.67" />
	<edge id="418371676_42435380_3579432162_6250061773" from="6250061773" to="6790551435" numLanes="1" speed="16.67" />
	<edge id="418371676_42435380_3579432162_6790551435" from="6790551435" to="1669455260" numLanes="1" speed="16.67" />
	<edge id="418371676_42435380_3579432162_1669455260" from="1669455260" to="6250061779" numLanes="1" speed="16.67" />
	<edge id="418371676_42435380_3579432162_6250061779" from="6250061779" to="42435353" numLanes="1" speed="16.67" />
	<edge id="418371676_42435380_3579432162_42435353" from="42435353" to="6250061752" numLanes="1" speed="16.67" />
	<edge id="418371676_42435380_3579432162_6250061752" from="6250061752" to="1669455259" numLanes="1" speed="16.67" />
	<edge id="418371676_42435380_3579432162_1669455259" from="1669455259" to="6250061780" numLanes="1" speed="16.67" />
	<edge id="418371676_42435380_3579432162_6250061780" from="6250061780" to="5694954657" numLanes="1" speed="16.67" />
	<edge id="418371676_42435380_3579432162_5694954657" from="5694954657" to="470209434" numLanes="1" speed="16.67" />
	<edge id="418371676_42435380_3579432162_470209434" from="470209434" to="1669455257" numLanes="1" speed="16.67" />
	<edge id="418371676_42435380_3579432162_1669455257" from="1669455257" to="1669455266" numLanes="1" speed="16.67" />
	<edge id="418371676_42435380_3579432162_1669455266" from="1669455266" to="6978508654" numLanes="1" speed="16.67" />
	<edge id="418371676_42435380_3579432162_6978508654" from="6978508654" to="1669455265" numLanes="1" speed="16.67" />
	<edge id="418371676_42435380_3579432162_1669455265" from="1669455265" to="6978508651" numLanes="1" speed="16.67" />
	<edge id="418371676_42435380_3579432162_6978508651" from="6978508651" to="5694954656" numLanes="1" speed="16.67" />
	<edge id="418371676_42435380_3579432162_5694954656" from="5694954656" to="1807949736" numLanes="1" speed="16.67" />
	<edge id="418371676_42435380_3579432162_1807949736" from="1807949736" to="1669455264" numLanes="1" speed="16.67" />
	<edge id="418371676_42435380_3579432162_1669455264" from="1669455264" to="1669455270" numLanes="1" speed="16.67" />
	<edge id="418371676_42435380_3579432162_1669455270" from="1669455270" to="6791440561" numLanes="1" speed="16.67" />
	<edge id="418371676_42435380_3579432162_6791440561" from="6791440561" to="1807949739" numLanes="1" speed="16.67" />
	<edge id="418371676_42435380_3579432162_1807949739" from="1807949739" to="3579432162" numLanes="1" speed="16.67" />
	<edge id="309956783_3579432161_561035338_3579432161" from="3579432161" to="7004347456" numLanes="2" speed="8.33" />
	<edge id="309956783_3579432161_561035338_7004347456" from="7004347456" to="561035338" numLanes="2" speed="8.33" />
	<edge id="767729564_7168010780_1504153626_7168010780" from="7168010780" to="7004347450" numLanes="1" speed="8.33" />
	<edge id="767729564_7168010780_1504153626_7004347450" from="7004347450" to="1504153626" numLanes="1" speed="8.33" />
	<edge id="45443072_42441077_42441091_42441077" from="42441077" to="4013803656" numLanes="1" speed="8.33" />
	<edge id="45443072_42441077_42441091_4013803656" from="4013803656" to="42441080" numLanes="1" speed="8.33" />
	<edge id="45443072_42441077_42441091_42441080" from="42441080" to="42441083" numLanes="1" speed="8.33" />
	<edge id="45443072_42441077_42441091_42441083" from="42441083" to="42441085" numLanes="1" speed="8.33" />
	<edge id="45443072_42441077_42441091_42441085" from="42441085" to="42441091" numLanes="1" speed="8.33" />
	<edge id="196117063_470209122_42429718_470209122" from="470209122" to="42429718" numLanes="1" speed="8.33" />
	<edge id="45443072_42441091_42441077_42441091" from="42441091" to="42441085" numLanes="1" speed="8.33" />
	<edge id="45443072_42441091_42441077_42441085" from="42441085" to="42441083" numLanes="1" speed="8.33" />
	<edge id="45443072_42441091_42441077_42441083" from="42441083" to="42441080" numLanes="1" speed="8.33" />
	<edge id="45443072_42441091_42441077_42441080" from="42441080" to="4013803656" numLanes="1" speed="8.33" />
	<edge id="45443072_42441091_42441077_4013803656" from="4013803656" to="42441077" numLanes="1" speed="8.33" />
	<edge id="195743140_42428844_1506591536_42428844" from="42428844" to="1506591536" numLanes="2" speed="18.06" />
	<edge id="5672571_1506591534_1332860731_1506591534" from="1506591534" to="1332860731" numLanes="1" speed="8.33" />
	<edge id="402097156_1506445762_6223571522_1506445762" from="1506445762" to="3907629301" numLanes="2" speed="11.18" />
	<edge id="402097156_1506445762_6223571522_3907629301" from="3907629301" to="2340960670" numLanes="2" speed="11.18" />
	<edge id="402097156_1506445762_6223571522_2340960670" from="2340960670" to="6223571524" numLanes="2" speed="11.18" />
	<edge id="402097156_1506445762_6223571522_6223571524" from="6223571524" to="6223571522" numLanes="2" speed="11.18" />
	<edge id="196116984_1506591536_6223571521_1506591536" from="1506591536" to="6223571521" numLanes="2" speed="11.18" />
	<edge id="418371676_42435359_42435380_42435359" from="42435359" to="1775693480" numLanes="1" speed="16.67" />
	<edge id="418371676_42435359_42435380_1775693480" from="1775693480" to="1775693287" numLanes="1" speed="16.67" />
	<edge id="418371676_42435359_42435380_1775693287" from="1775693287" to="4786589551" numLanes="1" speed="16.67" />
	<edge id="418371676_42435359_42435380_4786589551" from="4786589551" to="6990036159" numLanes="1" speed="16.67" />
	<edge id="418371676_42435359_42435380_6990036159" from="6990036159" to="6818442818" numLanes="1" speed="16.67" />
	<edge id="418371676_42435359_42435380_6818442818" from="6818442818" to="7202234794" numLanes="1" speed="16.67" />
	<edge id="418371676_42435359_42435380_7202234794" from="7202234794" to="1792516986" numLanes="1" speed="16.67" />
	<edge id="418371676_42435359_42435380_1792516986" from="1792516986" to="7099250754" numLanes="1" speed="16.67" />
	<edge id="418371676_42435359_42435380_7099250754" from="7099250754" to="42431186" numLanes="1" speed="16.67" />
	<edge id="418371676_42435359_42435380_42431186" from="42431186" to="6804416804" numLanes="1" speed="16.67" />
	<edge id="418371676_42435359_42435380_6804416804" from="6804416804" to="42435360" numLanes="1" speed="16.67" />
	<edge id="418371676_42435359_42435380_42435360" from="42435360" to="42435362" numLanes="1" speed="16.67" />
	<edge id="418371676_42435359_42435380_42435362" from="42435362" to="6804416829" numLanes="1" speed="16.67" />
	<edge id="418371676_42435359_42435380_6804416829" from="6804416829" to="6804416802" numLanes="1" speed="16.67" />
	<edge id="418371676_42435359_42435380_6804416802" from="6804416802" to="6804416801" numLanes="1" speed="16.67" />
	<edge id="418371676_42435359_42435380_6804416801" from="6804416801" to="6804416803" numLanes="1" speed="16.67" />
	<edge id="418371676_42435359_42435380_6804416803" from="6804416803" to="4941616074" numLanes="1" speed="16.67" />
	<edge id="418371676_42435359_42435380_4941616074" from="4941616074" to="6993998848" numLanes="1" speed="16.67" />
	<edge id="418371676_42435359_42435380_6993998848" from="6993998848" to="6781692068" numLanes="1" speed="16.67" />
	<edge id="418371676_42435359_42435380_6781692068" from="6781692068" to="1506445821" numLanes="1" speed="16.67" />
	<edge id="418371676_42435359_42435380_1506445821" from="1506445821" to="6794063520" numLanes="1" speed="16.67" />
	<edge id="418371676_42435359_42435380_6794063520" from="6794063520" to="7004422485" numLanes="1" speed="16.67" />
	<edge id="418371676_42435359_42435380_7004422485" from="7004422485" to="3579432159" numLanes="1" speed="16.67" />
	<edge id="418371676_42435359_42435380_3579432159" from="3579432159" to="7004321555" numLanes="1" speed="16.67" />
	<edge id="418371676_42435359_42435380_7004321555" from="7004321555" to="1506445789" numLanes="1" speed="16.67" />
	<edge id="418371676_42435359_42435380_1506445789" from="1506445789" to="6907095262" numLanes="1" speed="16.67" />
	<edge id="418371676_42435359_42435380_6907095262" from="6907095262" to="6791440531" numLanes="1" speed="16.67" />
	<edge id="418371676_42435359_42435380_6791440531" from="6791440531" to="6907095259" numLanes="1" speed="16.67" />
	<edge id="418371676_42435359_42435380_6907095259" from="6907095259" to="3579432160" numLanes="1" speed="16.67" />
	<edge id="418371676_42435359_42435380_3579432160" from="3579432160" to="7001614545" numLanes="1" speed="16.67" />
	<edge id="418371676_42435359_42435380_7001614545" from="7001614545" to="4188035934" numLanes="1" speed="16.67" />
	<edge id="418371676_42435359_42435380_4188035934" from="4188035934" to="6864814368" numLanes="1" speed="16.67" />
	<edge id="418371676_42435359_42435380_6864814368" from="6864814368" to="42435380" numLanes="1" speed="16.67" />
	<edge id="46562939_3269867944_42441091_3269867944" from="3269867944" to="6868145369" numLanes="2" speed="8.33" />
	<edge id="46562939_3269867944_42441091_6868145369" from="6868145369" to="6868145376" numLanes="2" speed="8.33" />
	<edge id="46562939_3269867944_42441091_6868145376" from="6868145376" to="42441095" numLanes="2" speed="8.33" />
	<edge id="46562939_3269867944_42441091_42441095" from="42441095" to="7108430032" numLanes="2" speed="8.33" />
	<edge id="46562939_3269867944_42441091_7108430032" from="7108430032" to="42441091" numLanes="2" speed="8.33" />
	<edge id="196117063_470209122_1506591536_470209122" from="470209122" to="470209121" numLanes="1" speed="8.33" />
	<edge id="196117063_470209122_1506591536_470209121" from="470209121" to="1506591536" numLanes="1" speed="8.33" />
	<edge id="5668986_561035342_42421857_561035342" from="561035342" to="2541754741" numLanes="1" speed="8.33" />
	<edge id="5668986_561035342_42421857_2541754741" from="2541754741" to="42421857" numLanes="1" speed="8.33" />
	<edge id="196116983_561035338_1506599378_561035338" from="561035338" to="6886294965" numLanes="2" speed="18.06" />
	<edge id="196116983_561035338_1506599378_6886294965" from="6886294965" to="6886294955" numLanes="2" speed="18.06" />
	<edge id="196116983_561035338_1506599378_6886294955" from="6886294955" to="6886294945" numLanes="2" speed="18.06" />
	<edge id="196116983_561035338_1506599378_6886294945" from="6886294945" to="1506599378" numLanes="2" speed="18.06" />
	<edge id="5672571_1506599378_3579432162_1506599378" from="1506599378" to="6886294931" numLanes="1" speed="8.33" />
	<edge id="5672571_1506599378_3579432162_6886294931" from="6886294931" to="1506599382" numLanes="1" speed="8.33" />
	<edge id="5672571_1506599378_3579432162_1506599382" from="1506599382" to="2297691110" numLanes="1" speed="8.33" />
	<edge id="5672571_1506599378_3579432162_2297691110" from="2297691110" to="6886295086" numLanes="1" speed="8.33" />
	<edge id="5672571_1506599378_3579432162_6886295086" from="6886295086" to="3579432162" numLanes="1" speed="8.33" />
	<edge id="46111614_42429718_1332860726_42429718" from="42429718" to="6868145384" numLanes="2" speed="16.67" />
	<edge id="46111614_42429718_1332860726_6868145384" from="6868145384" to="6868145380" numLanes="2" speed="16.67" />
	<edge id="46111614_42429718_1332860726_6868145380" from="6868145380" to="42441104" numLanes="2" speed="16.67" />
	<edge id="46111614_42429718_1332860726_42441104" from="42441104" to="1332860726" numLanes="2" speed="16.67" />
	<edge id="5668986_561035342_42421852_561035342" from="561035342" to="6791817304" numLanes="1" speed="8.33" />
	<edge id="5668986_561035342_42421852_6791817304" from="6791817304" to="6791817302" numLanes="1" speed="8.33" />
	<edge id="5668986_561035342_42421852_6791817302" from="6791817302" to="6791817303" numLanes="1" speed="8.33" />
	<edge id="5668986_561035342_42421852_6791817303" from="6791817303" to="5481847055" numLanes="1" speed="8.33" />
	<edge id="5668986_561035342_42421852_5481847055" from="5481847055" to="5481847054" numLanes="1" speed="8.33" />
	<edge id="5668986_561035342_42421852_5481847054" from="5481847054" to="5481847060" numLanes="1" speed="8.33" />
	<edge id="5668986_561035342_42421852_5481847060" from="5481847060" to="3579426844" numLanes="1" speed="8.33" />
	<edge id="5668986_561035342_42421852_3579426844" from="3579426844" to="7087041449" numLanes="1" speed="8.33" />
	<edge id="5668986_561035342_42421852_7087041449" from="7087041449" to="42421852" numLanes="1" speed="8.33" />
	<edge id="420590069_4207752456_42442584_4207752456" from="4207752456" to="6823995445" numLanes="1" speed="18.06" />
	<edge id="420590069_4207752456_42442584_6823995445" from="6823995445" to="42442584" numLanes="1" speed="18.06" />
	<edge id="196116983_1506599377_561035342_1506599377" from="1506599377" to="561035342" numLanes="2" speed="18.06" />
	<edge id="5668986_42421857_42421865_42421857" from="42421857" to="6223571511" numLanes="1" speed="8.33" />
	<edge id="5668986_42421857_42421865_6223571511" from="6223571511" to="42421865" numLanes="1" speed="8.33" />
	<edge id="767729564_1504153626_7168010780_1504153626" from="1504153626" to="7004347450" numLanes="1" speed="8.33" />
	<edge id="767729564_1504153626_7168010780_7004347450" from="7004347450" to="7168010780" numLanes="1" speed="8.33" />
	<edge id="5672571_1332860731_1506591534_1332860731" from="1332860731" to="1506591534" numLanes="1" speed="8.33" />
	<edge id="630828570_42438923_42438928_42438923" from="42438923" to="6993051350" numLanes="2" speed="8.33" />
	<edge id="630828570_42438923_42438928_6993051350" from="6993051350" to="1775693152" numLanes="2" speed="8.33" />
	<edge id="630828570_42438923_42438928_1775693152" from="1775693152" to="1695379692" numLanes="2" speed="8.33" />
	<edge id="630828570_42438923_42438928_1695379692" from="1695379692" to="6823085608" numLanes="2" speed="8.33" />
	<edge id="630828570_42438923_42438928_6823085608" from="6823085608" to="3579426702" numLanes="2" speed="8.33" />
	<edge id="630828570_42438923_42438928_3579426702" from="3579426702" to="6791440575" numLanes="2" speed="8.33" />
	<edge id="630828570_42438923_42438928_6791440575" from="6791440575" to="42438928" numLanes="2" speed="8.33" />
	<edge id="196116983_1504153604_561035338_1504153604" from="1504153604" to="561035338" numLanes="2" speed="18.06" />
	<edge id="196116984_6223571521_470209120_6223571521" from="6223571521" to="6223571523" numLanes="2" speed="11.18" />
	<edge id="196116984_6223571521_470209120_6223571523" from="6223571523" to="3579426872" numLanes="2" speed="11.18" />
	<edge id="196116984_6223571521_470209120_3579426872" from="3579426872" to="6223571526" numLanes="2" speed="11.18" />
	<edge id="196116984_6223571521_470209120_6223571526" from="6223571526" to="5895455151" numLanes="2" speed="11.18" />
	<edge id="196116984_6223571521_470209120_5895455151" from="5895455151" to="7004416694" numLanes="2" speed="11.18" />
	<edge id="196116984_6223571521_470209120_7004416694" from="7004416694" to="470209120" numLanes="2" speed="11.18" />
	<edge id="309956784_42438928_3579432162_42438928" from="42438928" to="6886295088" numLanes="1" speed="16.67" />
	<edge id="309956784_42438928_3579432162_6886295088" from="6886295088" to="6791440546" numLanes="1" speed="16.67" />
	<edge id="309956784_42438928_3579432162_6791440546" from="6791440546" to="3579432162" numLanes="1" speed="16.67" />
	<edge id="455675302_1506591536_1504153604_1506591536" from="1506591536" to="1504153604" numLanes="1" speed="8.33" />
	<edge id="196116971_3579432161_1504153626_3579432161" from="3579432161" to="6916346847" numLanes="1" speed="16.67" />
	<edge id="196116971_3579432161_1504153626_6916346847" from="6916346847" to="2133873543" numLanes="1" speed="16.67" />
	<edge id="196116971_3579432161_1504153626_2133873543" from="2133873543" to="6916346823" numLanes="1" speed="16.67" />
	<edge id="196116971_3579432161_1504153626_6916346823" from="6916346823" to="6781692070" numLanes="1" speed="16.67" />
	<edge id="196116971_3579432161_1504153626_6781692070" from="6781692070" to="1504153626" numLanes="1" speed="16.67" />
	<edge id="327917960_3347295528_1504153626_3347295528" from="3347295528" to="7004347457" numLanes="1" speed="16.67" />
	<edge id="327917960_3347295528_1504153626_7004347457" from="7004347457" to="2340960591" numLanes="1" speed="16.67" />
	<edge id="327917960_3347295528_1504153626_2340960591" from="2340960591" to="42442577" numLanes="1" speed="16.67" />
	<edge id="327917960_3347295528_1504153626_42442577" from="42442577" to="2308955220" numLanes="1" speed="16.67" />
	<edge id="327917960_3347295528_1504153626_2308955220" from="2308955220" to="42442578" numLanes="1" speed="16.67" />
	<edge id="327917960_3347295528_1504153626_42442578" from="42442578" to="7004347453" numLanes="1" speed="16.67" />
	<edge id="327917960_3347295528_1504153626_7004347453" from="7004347453" to="7004347451" numLanes="1" speed="16.67" />
	<edge id="327917960_3347295528_1504153626_7004347451" from="7004347451" to="1504153626" numLanes="1" speed="16.67" />
	<edge id="46111614_1332860726_3269867944_1332860726" from="1332860726" to="3269867944" numLanes="2" speed="16.67" />
	<edge id="444907552_3579426874_470209122_3579426874" from="3579426874" to="3271250957" numLanes="1" speed="8.33" />
	<edge id="444907552_3579426874_470209122_3271250957" from="3271250957" to="470209122" numLanes="1" speed="8.33" />
	<edge id="5672571_3579432162_1506599378_3579432162" from="3579432162" to="6886295086" numLanes="1" speed="8.33" />
	<edge id="5672571_3579432162_1506599378_6886295086" from="6886295086" to="2297691110" numLanes="1" speed="8.33" />
	<edge id="5672571_3579432162_1506599378_2297691110" from="2297691110" to="1506599382" numLanes="1" speed="8.33" />
	<edge id="5672571_3579432162_1506599378_1506599382" from="1506599382" to="6886294931" numLanes="1" speed="8.33" />
	<edge id="5672571_3579432162_1506599378_6886294931" from="6886294931" to="1506599378" numLanes="1" speed="8.33" />
	<edge id="195743140_1506591534_42428844_1506591534" from="1506591534" to="42428844" numLanes="2" speed="18.06" />
	<edge id="196117064_1504153626_1504153604_1504153626" from="1504153626" to="7004347452" numLanes="1" speed="8.33" />
	<edge id="196117064_1504153626_1504153604_7004347452" from="7004347452" to="2291820973" numLanes="1" speed="8.33" />
	<edge id="196117064_1504153626_1504153604_2291820973" from="2291820973" to="3579432163" numLanes="1" speed="8.33" />
	<edge id="196117064_1504153626_1504153604_3579432163" from="3579432163" to="2340960702" numLanes="1" speed="8.33" />
	<edge id="196117064_1504153626_1504153604_2340960702" from="2340960702" to="1504153604" numLanes="1" speed="8.33" />
	<edge id="455689184_3579432161_3579432162_3579432161" from="3579432161" to="7004347455" numLanes="1" speed="16.67" />
	<edge id="455689184_3579432161_3579432162_7004347455" from="7004347455" to="7198971058" numLanes="1" speed="16.67" />
	<edge id="455689184_3579432161_3579432162_7198971058" from="7198971058" to="3579432162" numLanes="1" speed="16.67" />
	<edge id="196116983_1506599378_1506599377_1506599378" from="1506599378" to="6886295101" numLanes="2" speed="18.06" />
	<edge id="196116983_1506599378_1506599377_6886295101" from="6886295101" to="1506599377" numLanes="2" speed="18.06" />
	<edge id="5671297_42435380_3579432161_42435380" from="42435380" to="6791440576" numLanes="2" speed="8.33" />
	<edge id="5671297_42435380_3579432161_6791440576" from="6791440576" to="1807949737" numLanes="2" speed="8.33" />